Target_lig_27
 OpenBabel04252502163D

 71 76  0  0  0  0  0  0  0  0999 V2000
    0.3256   -2.5292   -2.4729 C   0  0  0  0  0  0  0  0  0  0  0  0
    1.5757   -2.1834   -2.9821 C   0  0  0  0  0  0  0  0  0  0  0  0
    2.0374   -0.8713   -2.8624 C   0  0  0  0  0  0  0  0  0  0  0  0
    1.2487    0.0990   -2.2263 C   0  0  0  0  0  0  0  0  0  0  0  0
    0.0040   -0.2467   -1.7165 C   0  0  0  0  0  0  0  0  0  0  0  0
   -0.4608   -1.5635   -1.8436 C   0  0  0  0  0  0  0  0  0  0  0  0
   -0.8140    0.7536   -1.0067 C   0  0  0  0  0  0  0  0  0  0  0  0
   -1.8587    0.3952   -0.4724 O   0  0  0  0  0  0  0  0  0  0  0  0
   -0.3423    2.1602   -0.9031 C   0  0  0  0  0  0  0  0  0  0  0  0
    0.9120    2.5217   -1.4323 C   0  0  0  0  0  0  0  0  0  0  0  0
    1.7570    1.4725   -2.0751 C   0  0  0  0  0  0  0  0  0  0  0  0
    2.8958    1.7259   -2.4599 O   0  0  0  0  0  0  0  0  0  0  0  0
    1.4091    3.8534   -1.3043 C   0  0  0  0  0  0  0  0  0  0  0  0
    0.5877    4.7955   -0.6735 C   0  0  0  0  0  0  0  0  0  0  0  0
   -0.6591    4.4359   -0.1623 C   0  0  0  0  0  0  0  0  0  0  0  0
   -1.1376    3.1312   -0.2589 C   0  0  0  0  0  0  0  0  0  0  0  0
   -2.4114    2.8690    0.2703 N   0  0  0  0  0  0  0  0  0  0  0  0
   -3.6103    3.5864    0.1127 C   0  0  0  0  0  0  0  0  0  0  0  0
   -4.6231    3.3864    1.0483 C   0  0  0  0  0  0  0  0  0  0  0  0
   -5.8558    4.0496    0.9282 C   0  0  0  0  0  0  0  0  0  0  0  0
   -6.0962    4.9851   -0.0868 C   0  0  0  0  0  0  0  0  0  0  0  0
   -5.0353    5.2117   -0.9824 C   0  0  0  0  0  0  0  0  0  0  0  0
   -3.8168    4.5286   -0.8894 C   0  0  0  0  0  0  0  0  0  0  0  0
   -7.3429    5.5893   -0.2945 N   0  0  0  0  0  0  0  0  0  0  0  0
   -7.9223    6.0740   -1.4618 C   0  0  0  0  0  0  0  0  0  0  0  0
   -7.3657    5.8448   -2.6405 N   0  0  0  0  0  0  0  0  0  0  0  0
   -8.0195    6.3579   -3.6668 C   0  0  0  0  0  0  0  0  0  0  0  0
   -9.1389    7.0621   -3.6477 N   0  0  0  0  0  0  0  0  0  0  0  0
   -9.6320    7.2214   -2.4314 C   0  0  0  0  0  0  0  0  0  0  0  0
   -9.0568    6.7432   -1.3260 N   0  0  0  0  0  0  0  0  0  0  0  0
  -10.8147    7.9603   -2.2911 N   0  0  0  0  0  0  0  0  0  0  0  0
  -11.8714    7.6606   -1.3985 C   0  0  0  0  0  0  0  0  0  0  0  0
  -12.0184    6.3437   -0.9215 C   0  0  0  0  0  0  0  0  0  0  0  0
  -13.0895    5.9644   -0.1126 C   0  0  0  0  0  0  0  0  0  0  0  0
  -14.0320    6.9063    0.2596 C   0  0  0  0  0  0  0  0  0  0  0  0
  -13.9002    8.2251   -0.1540 C   0  0  0  0  0  0  0  0  0  0  0  0
  -12.8324    8.6061   -0.9884 C   0  0  0  0  0  0  0  0  0  0  0  0
  -12.8098   10.2954   -1.5265 S   0  0  0  0  0  0  0  0  0  0  0  0
  -12.1486   10.3457   -2.8262 O   0  0  0  0  0  0  0  0  0  0  0  0
  -14.1267   10.8535   -1.3557 O   0  0  0  0  0  0  0  0  0  0  0  0
  -11.8157   11.0396   -0.4974 O   0  0  0  0  0  0  0  0  0  0  0  0
   -7.2882    6.1015   -5.1889 Cl  0  0  0  0  0  0  0  0  0  0  0  0
   -7.1249    3.6057    2.0750 S   0  0  0  0  0  0  0  0  0  0  0  0
   -7.5062    4.8144    2.7733 O   0  0  0  0  0  0  0  0  0  0  0  0
   -8.0874    2.7873    1.3714 O   0  0  0  0  0  0  0  0  0  0  0  0
   -6.3995    2.6789    3.1815 O   0  0  0  0  0  0  0  0  0  0  0  0
    0.9934    6.5093   -0.4702 S   0  0  0  0  0  0  0  0  0  0  0  0
   -0.0516    7.2578   -1.1355 O   0  0  0  0  0  0  0  0  0  0  0  0
    1.3102    6.6983    0.9281 O   0  0  0  0  0  0  0  0  0  0  0  0
    2.3343    6.7767   -1.3237 O   0  0  0  0  0  0  0  0  0  0  0  0
    2.5849    4.2470   -1.9735 N   0  0  0  0  0  0  0  0  0  0  0  0
   -0.0340   -3.5521   -2.5574 H   0  0  0  0  0  0  0  0  0  0  0  0
    2.1925   -2.9365   -3.4680 H   0  0  0  0  0  0  0  0  0  0  0  0
    3.0183   -0.6125   -3.2605 H   0  0  0  0  0  0  0  0  0  0  0  0
   -1.4336   -1.8449   -1.4425 H   0  0  0  0  0  0  0  0  0  0  0  0
   -1.2650    5.1846    0.3495 H   0  0  0  0  0  0  0  0  0  0  0  0
   -2.5271    1.9191    0.6295 H   0  0  0  0  0  0  0  0  0  0  0  0
   -4.4442    2.6902    1.8602 H   0  0  0  0  0  0  0  0  0  0  0  0
   -5.1337    5.9337   -1.7912 H   0  0  0  0  0  0  0  0  0  0  0  0
   -3.0650    4.7254   -1.6456 H   0  0  0  0  0  0  0  0  0  0  0  0
   -7.9455    5.7551    0.5052 H   0  0  0  0  0  0  0  0  0  0  0  0
  -11.1392    8.2516   -3.2123 H   0  0  0  0  0  0  0  0  0  0  0  0
  -11.3094    5.5664   -1.1988 H   0  0  0  0  0  0  0  0  0  0  0  0
  -13.1801    4.9272    0.2011 H   0  0  0  0  0  0  0  0  0  0  0  0
  -14.8865    6.6059    0.8706 H   0  0  0  0  0  0  0  0  0  0  0  0
  -14.6454    8.9536    0.1578 H   0  0  0  0  0  0  0  0  0  0  0  0
  -10.9462   11.1502   -0.9344 H   0  0  0  0  0  0  0  0  0  0  0  0
   -6.1342    3.2450    3.9361 H   0  0  0  0  0  0  0  0  0  0  0  0
    2.0745    6.8706   -2.2664 H   0  0  0  0  0  0  0  0  0  0  0  0
    3.1710    3.4446   -2.2481 H   0  0  0  0  0  0  0  0  0  0  0  0
    3.1427    4.9466   -1.4782 H   0  0  0  0  0  0  0  0  0  0  0  0
  1  2  2  0  0  0  0
  1  6  1  0  0  0  0
  1 52  1  0  0  0  0
  2  3  1  0  0  0  0
  2 53  1  0  0  0  0
  3  4  2  0  0  0  0
  3 54  1  0  0  0  0
  4  5  1  0  0  0  0
  4 11  1  0  0  0  0
  5  6  2  0  0  0  0
  5  7  1  0  0  0  0
  6 55  1  0  0  0  0
  7  8  2  0  0  0  0
  7  9  1  0  0  0  0
  9 10  2  0  0  0  0
  9 16  1  0  0  0  0
 10 11  1  0  0  0  0
 10 13  1  0  0  0  0
 11 12  2  0  0  0  0
 13 14  2  0  0  0  0
 13 51  1  0  0  0  0
 14 15  1  0  0  0  0
 14 47  1  0  0  0  0
 15 16  2  0  0  0  0
 15 56  1  0  0  0  0
 16 17  1  0  0  0  0
 17 18  1  0  0  0  0
 17 57  1  0  0  0  0
 18 19  2  0  0  0  0
 18 23  1  0  0  0  0
 19 20  1  0  0  0  0
 19 58  1  0  0  0  0
 20 21  2  0  0  0  0
 20 43  1  0  0  0  0
 21 22  1  0  0  0  0
 21 24  1  0  0  0  0
 22 23  2  0  0  0  0
 22 59  1  0  0  0  0
 23 60  1  0  0  0  0
 24 25  1  0  0  0  0
 24 61  1  0  0  0  0
 25 26  2  0  0  0  0
 25 30  1  0  0  0  0
 26 27  1  0  0  0  0
 27 28  2  0  0  0  0
 27 42  1  0  0  0  0
 28 29  1  0  0  0  0
 29 30  2  0  0  0  0
 29 31  1  0  0  0  0
 31 32  1  0  0  0  0
 31 62  1  0  0  0  0
 32 33  2  0  0  0  0
 32 37  1  0  0  0  0
 33 34  1  0  0  0  0
 33 63  1  0  0  0  0
 34 35  2  0  0  0  0
 34 64  1  0  0  0  0
 35 36  1  0  0  0  0
 35 65  1  0  0  0  0
 36 37  2  0  0  0  0
 36 66  1  0  0  0  0
 37 38  1  0  0  0  0
 38 39  2  0  0  0  0
 38 40  2  0  0  0  0
 38 41  1  0  0  0  0
 41 67  1  0  0  0  0
 43 44  2  0  0  0  0
 43 45  2  0  0  0  0
 43 46  1  0  0  0  0
 46 68  1  0  0  0  0
 47 48  2  0  0  0  0
 47 49  2  0  0  0  0
 47 50  1  0  0  0  0
 50 69  1  0  0  0  0
 51 70  1  0  0  0  0
 51 71  1  0  0  0  0
M  END
$$$$
Target_lig_28
 OpenBabel04252502173D

 55 59  0  0  0  0  0  0  0  0999 V2000
    3.7065    0.6988    0.0179 C   0  0  0  0  0  0  0  0  0  0  0  0
    3.7170   -0.6948    0.0197 C   0  0  0  0  0  0  0  0  0  0  0  0
    2.5127   -1.3991    0.0120 C   0  0  0  0  0  0  0  0  0  0  0  0
    1.2907   -0.7096   -0.0062 C   0  0  0  0  0  0  0  0  0  0  0  0
    1.2785    0.6784   -0.0174 C   0  0  0  0  0  0  0  0  0  0  0  0
    2.4899    1.3860    0.0012 C   0  0  0  0  0  0  0  0  0  0  0  0
   -0.0019    1.4049   -0.0788 C   0  0  0  0  0  0  0  0  0  0  0  0
    0.0086    2.6303   -0.1563 O   0  0  0  0  0  0  0  0  0  0  0  0
   -1.2884    0.6540   -0.0641 C   0  0  0  0  0  0  0  0  0  0  0  0
   -1.2817   -0.7511   -0.0268 C   0  0  0  0  0  0  0  0  0  0  0  0
    0.0274   -1.4654   -0.0400 C   0  0  0  0  0  0  0  0  0  0  0  0
    0.0764   -2.6907   -0.1083 O   0  0  0  0  0  0  0  0  0  0  0  0
   -2.5005   -1.4940   -0.0368 C   0  0  0  0  0  0  0  0  0  0  0  0
   -3.7027   -0.7736   -0.0449 C   0  0  0  0  0  0  0  0  0  0  0  0
   -3.7067    0.6215   -0.0762 C   0  0  0  0  0  0  0  0  0  0  0  0
   -2.5167    1.3498   -0.0803 C   0  0  0  0  0  0  0  0  0  0  0  0
   -2.5969    2.7525   -0.1217 N   0  0  0  0  0  0  0  0  0  0  0  0
   -3.4331    3.6265    0.5997 C   0  0  0  0  0  0  0  0  0  0  0  0
   -3.6145    4.9061    0.0683 C   0  0  0  0  0  0  0  0  0  0  0  0
   -4.2579    5.9521    0.7513 C   0  0  0  0  0  0  0  0  0  0  0  0
   -4.8740    5.6052    1.9656 C   0  0  0  0  0  0  0  0  0  0  0  0
   -4.7808    4.2974    2.4820 C   0  0  0  0  0  0  0  0  0  0  0  0
   -4.0505    3.3179    1.8056 C   0  0  0  0  0  0  0  0  0  0  0  0
   -5.6921    6.8098    2.9825 S   0  0  0  0  0  0  0  0  0  0  0  0
   -5.5554    6.4049    4.3655 O   0  0  0  0  0  0  0  0  0  0  0  0
   -5.2900    8.1273    2.5376 O   0  0  0  0  0  0  0  0  0  0  0  0
   -7.2535    6.6241    2.6313 O   0  0  0  0  0  0  0  0  0  0  0  0
   -4.2761    7.2577    0.2058 N   0  0  0  0  0  0  0  0  0  0  0  0
   -3.3327    7.8399   -0.6576 C   0  0  0  0  0  0  0  0  0  0  0  0
   -2.6359    7.0841   -1.4967 N   0  0  0  0  0  0  0  0  0  0  0  0
   -1.6801    7.6931   -2.1724 C   0  0  0  0  0  0  0  0  0  0  0  0
   -1.3541    8.9622   -2.1230 N   0  0  0  0  0  0  0  0  0  0  0  0
   -2.1430    9.6178   -1.2918 C   0  0  0  0  0  0  0  0  0  0  0  0
   -3.1368    9.1406   -0.5454 N   0  0  0  0  0  0  0  0  0  0  0  0
   -1.8010   11.2804   -1.1035 Cl  0  0  0  0  0  0  0  0  0  0  0  0
   -0.7127    6.6804   -3.1538 Cl  0  0  0  0  0  0  0  0  0  0  0  0
   -5.3161   -1.5128   -0.0108 S   0  0  0  0  0  0  0  0  0  0  0  0
   -5.9636   -1.0289    1.1900 O   0  0  0  0  0  0  0  0  0  0  0  0
   -5.8891   -1.3300   -1.3253 O   0  0  0  0  0  0  0  0  0  0  0  0
   -5.1014   -3.0951    0.2180 O   0  0  0  0  0  0  0  0  0  0  0  0
   -2.4868   -2.8877    0.1737 N   0  0  0  0  0  0  0  0  0  0  0  0
    4.6442    1.2498    0.0212 H   0  0  0  0  0  0  0  0  0  0  0  0
    4.6624   -1.2335    0.0210 H   0  0  0  0  0  0  0  0  0  0  0  0
    2.5320   -2.4879    0.0114 H   0  0  0  0  0  0  0  0  0  0  0  0
    2.4944    2.4750   -0.0055 H   0  0  0  0  0  0  0  0  0  0  0  0
   -4.6572    1.1557   -0.1149 H   0  0  0  0  0  0  0  0  0  0  0  0
   -1.6819    3.1912   -0.3035 H   0  0  0  0  0  0  0  0  0  0  0  0
   -3.2054    5.0561   -0.9251 H   0  0  0  0  0  0  0  0  0  0  0  0
   -5.2385    4.0425    3.4364 H   0  0  0  0  0  0  0  0  0  0  0  0
   -3.9402    2.3356    2.2560 H   0  0  0  0  0  0  0  0  0  0  0  0
   -7.6953    6.2413    3.4182 H   0  0  0  0  0  0  0  0  0  0  0  0
   -4.6044    7.9907    0.8409 H   0  0  0  0  0  0  0  0  0  0  0  0
   -4.9734   -3.2422    1.1809 H   0  0  0  0  0  0  0  0  0  0  0  0
   -1.5638   -3.3038   -0.0241 H   0  0  0  0  0  0  0  0  0  0  0  0
   -3.2221   -3.3993   -0.3190 H   0  0  0  0  0  0  0  0  0  0  0  0
  1  2  2  0  0  0  0
  1  6  1  0  0  0  0
  1 42  1  0  0  0  0
  2  3  1  0  0  0  0
  2 43  1  0  0  0  0
  3  4  2  0  0  0  0
  3 44  1  0  0  0  0
  4  5  1  0  0  0  0
  4 11  1  0  0  0  0
  5  6  2  0  0  0  0
  5  7  1  0  0  0  0
  6 45  1  0  0  0  0
  7  8  2  0  0  0  0
  7  9  1  0  0  0  0
  9 10  2  0  0  0  0
  9 16  1  0  0  0  0
 10 11  1  0  0  0  0
 10 13  1  0  0  0  0
 11 12  2  0  0  0  0
 13 14  2  0  0  0  0
 13 41  1  0  0  0  0
 14 15  1  0  0  0  0
 14 37  1  0  0  0  0
 15 16  2  0  0  0  0
 15 46  1  0  0  0  0
 16 17  1  0  0  0  0
 17 18  1  0  0  0  0
 17 47  1  0  0  0  0
 18 19  2  0  0  0  0
 18 23  1  0  0  0  0
 19 20  1  0  0  0  0
 19 48  1  0  0  0  0
 20 21  2  0  0  0  0
 20 28  1  0  0  0  0
 21 22  1  0  0  0  0
 21 24  1  0  0  0  0
 22 23  2  0  0  0  0
 22 49  1  0  0  0  0
 23 50  1  0  0  0  0
 24 25  2  0  0  0  0
 24 26  2  0  0  0  0
 24 27  1  0  0  0  0
 27 51  1  0  0  0  0
 28 29  1  0  0  0  0
 28 52  1  0  0  0  0
 29 30  2  0  0  0  0
 29 34  1  0  0  0  0
 30 31  1  0  0  0  0
 31 32  2  0  0  0  0
 31 36  1  0  0  0  0
 32 33  1  0  0  0  0
 33 34  2  0  0  0  0
 33 35  1  0  0  0  0
 37 38  2  0  0  0  0
 37 39  2  0  0  0  0
 37 40  1  0  0  0  0
 40 53  1  0  0  0  0
 41 54  1  0  0  0  0
 41 55  1  0  0  0  0
M  END
$$$$
Target_lig_65
 OpenBabel04252502173D

 47 49  0  0  1  0  0  0  0  0999 V2000
    3.0764   -1.6600    1.0787 C   0  0  0  0  0  0  0  0  0  0  0  0
    2.5685   -2.5845    0.2347 N   0  0  0  0  0  0  0  0  0  0  0  0
    1.7331   -2.1722   -0.7451 C   0  0  0  0  0  0  0  0  0  0  0  0
    1.3984   -0.8080   -0.8079 C   0  0  0  0  0  0  0  0  0  0  0  0
    2.0051    0.0252    0.1191 C   0  0  0  0  0  0  0  0  0  0  0  0
    2.8674   -0.3247    1.0864 N   0  0  0  0  0  0  0  0  0  0  0  0
    1.5887    1.2875   -0.2099 N   0  0  0  0  0  0  0  0  0  0  0  0
    0.6882    1.1637   -1.2364 C   0  0  0  0  0  0  0  0  0  0  0  0
    0.5813   -0.0822   -1.6515 N   0  0  0  0  0  0  0  0  0  0  0  0
    2.2369    2.5052    0.2252 C   0  0  3  0  0  0  0  0  0  0  0  0
    1.6881    3.1924    1.4867 C   0  0  3  0  0  0  0  0  0  0  0  0
    1.7352    4.6914    1.1458 C   0  0  3  0  0  0  0  0  0  0  0  0
    2.3915    4.7540   -0.2256 C   0  0  3  0  0  0  0  0  0  0  0  0
    2.1271    3.4764   -0.8274 O   0  0  0  0  0  0  0  0  0  0  0  0
    3.9063    5.0106   -0.1793 C   0  0  0  0  0  0  0  0  0  0  0  0
    4.4835    4.7812   -1.4516 O   0  0  0  0  0  0  0  0  0  0  0  0
    4.2624    5.8496   -2.6254 P   0  0  3  0  0  0  0  0  0  0  0  0
    2.9515    6.5516   -2.6428 O   0  0  0  0  0  0  0  0  0  0  0  0
    5.4539    6.8723   -2.3224 O   0  0  0  0  0  0  0  0  0  0  0  0
    4.7315    5.0947   -3.9307 O   0  0  0  0  0  0  0  0  0  0  0  0
    3.9082    4.6739   -5.2254 P   0  0  3  0  0  0  0  0  0  0  0  0
    2.9701    5.7070   -5.7493 O   0  0  0  0  0  0  0  0  0  0  0  0
    5.1327    4.4179   -6.2415 O   0  0  0  0  0  0  0  0  0  0  0  0
    3.2832    3.2066   -5.0804 O   0  0  0  0  0  0  0  0  0  0  0  0
    4.1046    1.7933   -4.5141 P   0  0  0  0  0  0  0  0  0  0  0  0
    5.4914    2.4209   -4.6719 O   0  0  0  0  0  0  0  0  0  0  0  0
    3.6024    2.0448   -2.9945 O   0  0  0  0  0  0  0  0  0  0  0  0
    4.9259    0.3799   -3.9478 O   0  0  0  0  0  0  0  0  0  0  0  0
    2.4250    5.4930    2.0968 O   0  0  0  0  0  0  0  0  0  0  0  0
    2.4426    2.9546    2.6807 O   0  0  0  0  0  0  0  0  0  0  0  0
    1.2596   -3.1182   -1.6440 N   0  0  0  0  0  0  0  0  0  0  0  0
    3.7435   -2.0430    1.8465 H   0  0  0  0  0  0  0  0  0  0  0  0
    0.1909    2.0167   -1.6850 H   0  0  0  0  0  0  0  0  0  0  0  0
    3.3001    2.2621    0.3428 H   0  0  0  0  0  0  0  0  0  0  0  0
    0.6506    2.8939    1.6786 H   0  0  0  0  0  0  0  0  0  0  0  0
    0.7088    5.0686    1.0599 H   0  0  0  0  0  0  0  0  0  0  0  0
    1.8987    5.5118   -0.8341 H   0  0  0  0  0  0  0  0  0  0  0  0
    4.3955    4.3092    0.5038 H   0  0  0  0  0  0  0  0  0  0  0  0
    4.1455    6.0203    0.1709 H   0  0  0  0  0  0  0  0  0  0  0  0
    5.1501    7.6392   -1.8080 H   0  0  0  0  0  0  0  0  0  0  0  0
    5.7712    3.8162   -5.7908 H   0  0  0  0  0  0  0  0  0  0  0  0
    2.8390    1.4711   -2.7927 H   0  0  0  0  0  0  0  0  0  0  0  0
    5.8452    0.6945   -3.8178 H   0  0  0  0  0  0  0  0  0  0  0  0
    2.8425    4.8849    2.7390 H   0  0  0  0  0  0  0  0  0  0  0  0
    3.3386    2.6458    2.4559 H   0  0  0  0  0  0  0  0  0  0  0  0
    1.3216   -4.0615   -1.2838 H   0  0  0  0  0  0  0  0  0  0  0  0
    0.4103   -2.8485   -2.1260 H   0  0  0  0  0  0  0  0  0  0  0  0
  1  2  2  0  0  0  0
  1  6  1  0  0  0  0
  1 32  1  0  0  0  0
  2  3  1  0  0  0  0
  3  4  2  0  0  0  0
  3 31  1  0  0  0  0
  4  5  1  0  0  0  0
  4  9  1  0  0  0  0
  5  6  2  0  0  0  0
  5  7  1  0  0  0  0
  7  8  1  0  0  0  0
  7 10  1  0  0  0  0
  8  9  2  0  0  0  0
  8 33  1  0  0  0  0
 10 11  1  0  0  0  0
 10 14  1  0  0  0  0
 10 34  1  0  0  0  0
 11 12  1  0  0  0  0
 11 30  1  0  0  0  0
 11 35  1  0  0  0  0
 12 13  1  0  0  0  0
 12 29  1  0  0  0  0
 12 36  1  0  0  0  0
 13 14  1  0  0  0  0
 13 15  1  0  0  0  0
 13 37  1  0  0  0  0
 15 16  1  0  0  0  0
 15 38  1  0  0  0  0
 15 39  1  0  0  0  0
 16 17  1  0  0  0  0
 17 18  2  0  0  0  0
 17 19  1  0  0  0  0
 17 20  1  0  0  0  0
 19 40  1  0  0  0  0
 20 21  1  0  0  0  0
 21 22  2  0  0  0  0
 21 23  1  0  0  0  0
 21 24  1  0  0  0  0
 23 41  1  0  0  0  0
 24 25  1  0  0  0  0
 25 26  2  0  0  0  0
 25 27  1  0  0  0  0
 25 28  1  0  0  0  0
 27 42  1  0  0  0  0
 28 43  1  0  0  0  0
 29 44  1  0  0  0  0
 30 45  1  0  0  0  0
 31 46  1  0  0  0  0
 31 47  1  0  0  0  0
M  END
$$$$
