Target_lig_27
 OpenBabel04252502213D

 71 76  0  0  0  0  0  0  0  0999 V2000
    0.3068   -2.5309   -2.4487 C   0  0  0  0  0  0  0  0  0  0  0  0
    1.5566   -2.1907   -2.9615 C   0  0  0  0  0  0  0  0  0  0  0  0
    2.0264   -0.8825   -2.8386 C   0  0  0  0  0  0  0  0  0  0  0  0
    1.2472    0.0894   -2.1940 C   0  0  0  0  0  0  0  0  0  0  0  0
    0.0053   -0.2512   -1.6755 C   0  0  0  0  0  0  0  0  0  0  0  0
   -0.4706   -1.5638   -1.8081 C   0  0  0  0  0  0  0  0  0  0  0  0
   -0.7952    0.7533   -0.9558 C   0  0  0  0  0  0  0  0  0  0  0  0
   -1.8460    0.4117   -0.4200 O   0  0  0  0  0  0  0  0  0  0  0  0
   -0.3177    2.1588   -0.8605 C   0  0  0  0  0  0  0  0  0  0  0  0
    0.9300    2.5163   -1.4046 C   0  0  0  0  0  0  0  0  0  0  0  0
    1.7662    1.4591   -2.0437 C   0  0  0  0  0  0  0  0  0  0  0  0
    2.9075    1.7020   -2.4270 O   0  0  0  0  0  0  0  0  0  0  0  0
    1.4254    3.8504   -1.3008 C   0  0  0  0  0  0  0  0  0  0  0  0
    0.6045    4.8004   -0.6790 C   0  0  0  0  0  0  0  0  0  0  0  0
   -0.6373    4.4436   -0.1448 C   0  0  0  0  0  0  0  0  0  0  0  0
   -1.1175    3.1342   -0.2278 C   0  0  0  0  0  0  0  0  0  0  0  0
   -2.3896    2.8466    0.3162 N   0  0  0  0  0  0  0  0  0  0  0  0
   -3.5931    3.5609    0.1460 C   0  0  0  0  0  0  0  0  0  0  0  0
   -4.6373    3.3237    1.0378 C   0  0  0  0  0  0  0  0  0  0  0  0
   -5.8617    4.0015    0.9104 C   0  0  0  0  0  0  0  0  0  0  0  0
   -6.0816    4.9500   -0.1024 C   0  0  0  0  0  0  0  0  0  0  0  0
   -5.0137    5.1755   -0.9836 C   0  0  0  0  0  0  0  0  0  0  0  0
   -3.7926    4.5029   -0.8610 C   0  0  0  0  0  0  0  0  0  0  0  0
   -7.3233    5.5672   -0.3093 N   0  0  0  0  0  0  0  0  0  0  0  0
   -7.9075    6.0846   -1.4674 C   0  0  0  0  0  0  0  0  0  0  0  0
   -7.3741    5.8646   -2.6559 N   0  0  0  0  0  0  0  0  0  0  0  0
   -8.0374    6.4128   -3.6590 C   0  0  0  0  0  0  0  0  0  0  0  0
   -9.1423    7.1387   -3.6054 N   0  0  0  0  0  0  0  0  0  0  0  0
   -9.6223    7.2622   -2.3821 C   0  0  0  0  0  0  0  0  0  0  0  0
   -9.0339    6.7611   -1.2949 N   0  0  0  0  0  0  0  0  0  0  0  0
  -10.8131    7.9787   -2.2331 N   0  0  0  0  0  0  0  0  0  0  0  0
  -11.8946    7.6569   -1.3864 C   0  0  0  0  0  0  0  0  0  0  0  0
  -12.0508    6.3419   -0.9023 C   0  0  0  0  0  0  0  0  0  0  0  0
  -13.1132    5.9866   -0.0701 C   0  0  0  0  0  0  0  0  0  0  0  0
  -14.0489    6.9398    0.3092 C   0  0  0  0  0  0  0  0  0  0  0  0
  -13.9222    8.2485   -0.1510 C   0  0  0  0  0  0  0  0  0  0  0  0
  -12.8565    8.6036   -0.9935 C   0  0  0  0  0  0  0  0  0  0  0  0
  -12.7811   10.2932   -1.5419 S   0  0  0  0  0  0  0  0  0  0  0  0
  -12.1183   10.3311   -2.8280 O   0  0  0  0  0  0  0  0  0  0  0  0
  -14.0858   10.8902   -1.3589 O   0  0  0  0  0  0  0  0  0  0  0  0
  -11.7706   10.9958   -0.4945 O   0  0  0  0  0  0  0  0  0  0  0  0
   -7.3813    6.1448   -5.2140 Cl  0  0  0  0  0  0  0  0  0  0  0  0
   -7.1339    3.6177    2.0769 S   0  0  0  0  0  0  0  0  0  0  0  0
   -7.4988    4.8601    2.7266 O   0  0  0  0  0  0  0  0  0  0  0  0
   -8.1101    2.7859    1.4141 O   0  0  0  0  0  0  0  0  0  0  0  0
   -6.4215    2.7322    3.2238 O   0  0  0  0  0  0  0  0  0  0  0  0
    1.0188    6.5176   -0.5010 S   0  0  0  0  0  0  0  0  0  0  0  0
   -0.0140    7.2639   -1.1867 O   0  0  0  0  0  0  0  0  0  0  0  0
    1.3272    6.7275    0.8957 O   0  0  0  0  0  0  0  0  0  0  0  0
    2.3698    6.7653   -1.3475 O   0  0  0  0  0  0  0  0  0  0  0  0
    2.5937    4.2323   -1.9903 N   0  0  0  0  0  0  0  0  0  0  0  0
   -0.0592   -3.5516   -2.5404 H   0  0  0  0  0  0  0  0  0  0  0  0
    2.1686   -2.9444   -3.4525 H   0  0  0  0  0  0  0  0  0  0  0  0
    3.0069   -0.6285   -3.2388 H   0  0  0  0  0  0  0  0  0  0  0  0
   -1.4432   -1.8424   -1.4054 H   0  0  0  0  0  0  0  0  0  0  0  0
   -1.2418    5.2024    0.3544 H   0  0  0  0  0  0  0  0  0  0  0  0
   -2.5658    1.8329    0.3701 H   0  0  0  0  0  0  0  0  0  0  0  0
   -4.4853    2.5966    1.8320 H   0  0  0  0  0  0  0  0  0  0  0  0
   -5.1035    5.8990   -1.7914 H   0  0  0  0  0  0  0  0  0  0  0  0
   -3.0214    4.7138   -1.5966 H   0  0  0  0  0  0  0  0  0  0  0  0
   -7.9087    5.7595    0.4972 H   0  0  0  0  0  0  0  0  0  0  0  0
  -11.1064    8.3388   -3.1407 H   0  0  0  0  0  0  0  0  0  0  0  0
  -11.3526    5.5584   -1.1848 H   0  0  0  0  0  0  0  0  0  0  0  0
  -13.2041    4.9589    0.2775 H   0  0  0  0  0  0  0  0  0  0  0  0
  -14.8744    6.6640    0.9591 H   0  0  0  0  0  0  0  0  0  0  0  0
  -14.6585    8.9891    0.1595 H   0  0  0  0  0  0  0  0  0  0  0  0
  -10.9092   11.1292   -0.9433 H   0  0  0  0  0  0  0  0  0  0  0  0
   -6.2562    3.3079    3.9987 H   0  0  0  0  0  0  0  0  0  0  0  0
    2.1143    6.8903   -2.2877 H   0  0  0  0  0  0  0  0  0  0  0  0
    3.1863    3.4246   -2.2372 H   0  0  0  0  0  0  0  0  0  0  0  0
    3.1493    4.9546   -1.5264 H   0  0  0  0  0  0  0  0  0  0  0  0
  1  2  2  0  0  0  0
  1  6  1  0  0  0  0
  1 52  1  0  0  0  0
  2  3  1  0  0  0  0
  2 53  1  0  0  0  0
  3  4  2  0  0  0  0
  3 54  1  0  0  0  0
  4  5  1  0  0  0  0
  4 11  1  0  0  0  0
  5  6  2  0  0  0  0
  5  7  1  0  0  0  0
  6 55  1  0  0  0  0
  7  8  2  0  0  0  0
  7  9  1  0  0  0  0
  9 10  2  0  0  0  0
  9 16  1  0  0  0  0
 10 11  1  0  0  0  0
 10 13  1  0  0  0  0
 11 12  2  0  0  0  0
 13 14  2  0  0  0  0
 13 51  1  0  0  0  0
 14 15  1  0  0  0  0
 14 47  1  0  0  0  0
 15 16  2  0  0  0  0
 15 56  1  0  0  0  0
 16 17  1  0  0  0  0
 17 18  1  0  0  0  0
 17 57  1  0  0  0  0
 18 19  2  0  0  0  0
 18 23  1  0  0  0  0
 19 20  1  0  0  0  0
 19 58  1  0  0  0  0
 20 21  2  0  0  0  0
 20 43  1  0  0  0  0
 21 22  1  0  0  0  0
 21 24  1  0  0  0  0
 22 23  2  0  0  0  0
 22 59  1  0  0  0  0
 23 60  1  0  0  0  0
 24 25  1  0  0  0  0
 24 61  1  0  0  0  0
 25 26  2  0  0  0  0
 25 30  1  0  0  0  0
 26 27  1  0  0  0  0
 27 28  2  0  0  0  0
 27 42  1  0  0  0  0
 28 29  1  0  0  0  0
 29 30  2  0  0  0  0
 29 31  1  0  0  0  0
 31 32  1  0  0  0  0
 31 62  1  0  0  0  0
 32 33  2  0  0  0  0
 32 37  1  0  0  0  0
 33 34  1  0  0  0  0
 33 63  1  0  0  0  0
 34 35  2  0  0  0  0
 34 64  1  0  0  0  0
 35 36  1  0  0  0  0
 35 65  1  0  0  0  0
 36 37  2  0  0  0  0
 36 66  1  0  0  0  0
 37 38  1  0  0  0  0
 38 39  2  0  0  0  0
 38 40  2  0  0  0  0
 38 41  1  0  0  0  0
 41 67  1  0  0  0  0
 43 44  2  0  0  0  0
 43 45  2  0  0  0  0
 43 46  1  0  0  0  0
 46 68  1  0  0  0  0
 47 48  2  0  0  0  0
 47 49  2  0  0  0  0
 47 50  1  0  0  0  0
 50 69  1  0  0  0  0
 51 70  1  0  0  0  0
 51 71  1  0  0  0  0
M  END
$$$$
Target_lig_28
 OpenBabel04252502223D

 55 59  0  0  0  0  0  0  0  0999 V2000
    3.7197    0.6955    0.0125 C   0  0  0  0  0  0  0  0  0  0  0  0
    3.7267   -0.6980    0.0082 C   0  0  0  0  0  0  0  0  0  0  0  0
    2.5200   -1.3984    0.0120 C   0  0  0  0  0  0  0  0  0  0  0  0
    1.2997   -0.7046    0.0092 C   0  0  0  0  0  0  0  0  0  0  0  0
    1.2925    0.6844    0.0030 C   0  0  0  0  0  0  0  0  0  0  0  0
    2.5063    1.3869    0.0135 C   0  0  0  0  0  0  0  0  0  0  0  0
    0.0158    1.4195   -0.0570 C   0  0  0  0  0  0  0  0  0  0  0  0
    0.0348    2.6430   -0.1381 O   0  0  0  0  0  0  0  0  0  0  0  0
   -1.2735    0.6734   -0.0513 C   0  0  0  0  0  0  0  0  0  0  0  0
   -1.2712   -0.7341   -0.0139 C   0  0  0  0  0  0  0  0  0  0  0  0
    0.0337   -1.4539   -0.0227 C   0  0  0  0  0  0  0  0  0  0  0  0
    0.0781   -2.6807   -0.0880 O   0  0  0  0  0  0  0  0  0  0  0  0
   -2.4926   -1.4721   -0.0329 C   0  0  0  0  0  0  0  0  0  0  0  0
   -3.6914   -0.7487   -0.0403 C   0  0  0  0  0  0  0  0  0  0  0  0
   -3.6897    0.6455   -0.0690 C   0  0  0  0  0  0  0  0  0  0  0  0
   -2.5003    1.3698   -0.0833 C   0  0  0  0  0  0  0  0  0  0  0  0
   -2.5897    2.7703   -0.1185 N   0  0  0  0  0  0  0  0  0  0  0  0
   -3.4276    3.6425    0.5995 C   0  0  0  0  0  0  0  0  0  0  0  0
   -3.6386    4.9090    0.0530 C   0  0  0  0  0  0  0  0  0  0  0  0
   -4.2936    5.9547    0.7275 C   0  0  0  0  0  0  0  0  0  0  0  0
   -4.9037    5.6148    1.9436 C   0  0  0  0  0  0  0  0  0  0  0  0
   -4.8088    4.3085    2.4632 C   0  0  0  0  0  0  0  0  0  0  0  0
   -4.0622    3.3327    1.7962 C   0  0  0  0  0  0  0  0  0  0  0  0
   -5.6893    6.8349    2.9684 S   0  0  0  0  0  0  0  0  0  0  0  0
   -5.5372    6.4282    4.3483 O   0  0  0  0  0  0  0  0  0  0  0  0
   -5.2703    8.1448    2.5152 O   0  0  0  0  0  0  0  0  0  0  0  0
   -7.2584    6.6712    2.6381 O   0  0  0  0  0  0  0  0  0  0  0  0
   -4.3260    7.2572    0.1692 N   0  0  0  0  0  0  0  0  0  0  0  0
   -3.3665    7.8261   -0.6893 C   0  0  0  0  0  0  0  0  0  0  0  0
   -2.6762    7.0540   -1.5148 N   0  0  0  0  0  0  0  0  0  0  0  0
   -1.6806    7.6234   -2.1568 C   0  0  0  0  0  0  0  0  0  0  0  0
   -1.3144    8.8863   -2.0982 N   0  0  0  0  0  0  0  0  0  0  0  0
   -2.1115    9.5644   -1.2941 C   0  0  0  0  0  0  0  0  0  0  0  0
   -3.1377    9.1214   -0.5697 N   0  0  0  0  0  0  0  0  0  0  0  0
   -1.7467   11.2268   -1.1316 Cl  0  0  0  0  0  0  0  0  0  0  0  0
   -0.7178    6.5726   -3.0994 Cl  0  0  0  0  0  0  0  0  0  0  0  0
   -5.3082   -1.4745   -0.0167 S   0  0  0  0  0  0  0  0  0  0  0  0
   -5.9631   -0.9757    1.1787 O   0  0  0  0  0  0  0  0  0  0  0  0
   -5.8652   -1.2996   -1.3337 O   0  0  0  0  0  0  0  0  0  0  0  0
   -5.1062   -3.0573    0.2324 O   0  0  0  0  0  0  0  0  0  0  0  0
   -2.4882   -2.8676    0.1634 N   0  0  0  0  0  0  0  0  0  0  0  0
    4.6593    1.2444    0.0045 H   0  0  0  0  0  0  0  0  0  0  0  0
    4.6704   -1.2394   -0.0038 H   0  0  0  0  0  0  0  0  0  0  0  0
    2.5360   -2.4873    0.0044 H   0  0  0  0  0  0  0  0  0  0  0  0
    2.5135    2.4759    0.0087 H   0  0  0  0  0  0  0  0  0  0  0  0
   -4.6374    1.1819   -0.1101 H   0  0  0  0  0  0  0  0  0  0  0  0
   -1.7209    3.2259   -0.4263 H   0  0  0  0  0  0  0  0  0  0  0  0
   -3.2383    5.0502   -0.9447 H   0  0  0  0  0  0  0  0  0  0  0  0
   -5.2687    4.0533    3.4164 H   0  0  0  0  0  0  0  0  0  0  0  0
   -3.9463    2.3539    2.2528 H   0  0  0  0  0  0  0  0  0  0  0  0
   -7.6763    6.1888    3.3806 H   0  0  0  0  0  0  0  0  0  0  0  0
   -4.6398    7.9925    0.8090 H   0  0  0  0  0  0  0  0  0  0  0  0
   -4.9600   -3.1926    1.1942 H   0  0  0  0  0  0  0  0  0  0  0  0
   -1.5637   -3.2872   -0.0263 H   0  0  0  0  0  0  0  0  0  0  0  0
   -3.2187   -3.3699   -0.3432 H   0  0  0  0  0  0  0  0  0  0  0  0
  1  2  2  0  0  0  0
  1  6  1  0  0  0  0
  1 42  1  0  0  0  0
  2  3  1  0  0  0  0
  2 43  1  0  0  0  0
  3  4  2  0  0  0  0
  3 44  1  0  0  0  0
  4  5  1  0  0  0  0
  4 11  1  0  0  0  0
  5  6  2  0  0  0  0
  5  7  1  0  0  0  0
  6 45  1  0  0  0  0
  7  8  2  0  0  0  0
  7  9  1  0  0  0  0
  9 10  2  0  0  0  0
  9 16  1  0  0  0  0
 10 11  1  0  0  0  0
 10 13  1  0  0  0  0
 11 12  2  0  0  0  0
 13 14  2  0  0  0  0
 13 41  1  0  0  0  0
 14 15  1  0  0  0  0
 14 37  1  0  0  0  0
 15 16  2  0  0  0  0
 15 46  1  0  0  0  0
 16 17  1  0  0  0  0
 17 18  1  0  0  0  0
 17 47  1  0  0  0  0
 18 19  2  0  0  0  0
 18 23  1  0  0  0  0
 19 20  1  0  0  0  0
 19 48  1  0  0  0  0
 20 21  2  0  0  0  0
 20 28  1  0  0  0  0
 21 22  1  0  0  0  0
 21 24  1  0  0  0  0
 22 23  2  0  0  0  0
 22 49  1  0  0  0  0
 23 50  1  0  0  0  0
 24 25  2  0  0  0  0
 24 26  2  0  0  0  0
 24 27  1  0  0  0  0
 27 51  1  0  0  0  0
 28 29  1  0  0  0  0
 28 52  1  0  0  0  0
 29 30  2  0  0  0  0
 29 34  1  0  0  0  0
 30 31  1  0  0  0  0
 31 32  2  0  0  0  0
 31 36  1  0  0  0  0
 32 33  1  0  0  0  0
 33 34  2  0  0  0  0
 33 35  1  0  0  0  0
 37 38  2  0  0  0  0
 37 39  2  0  0  0  0
 37 40  1  0  0  0  0
 40 53  1  0  0  0  0
 41 54  1  0  0  0  0
 41 55  1  0  0  0  0
M  END
$$$$
