Target_lig_627
 OpenBabel04172506213D

206216  0  0  0  0  0  0  0  0999 V2000
   10.5107    4.1234    0.1123 C   0  0  0  0  0  0  0  0  0  0  0  0
   11.4983    3.2896   -0.6899 C   0  0  0  0  0  0  0  0  0  0  0  0
   11.3587    3.6957   -2.0886 C   0  0  0  0  0  0  0  0  0  0  0  0
    9.9281    3.6640   -2.3489 N   0  0  0  0  0  0  0  0  0  0  0  0
    9.3142    4.9964   -2.4510 C   0  0  0  0  0  0  0  0  0  0  0  0
    8.4166    5.9234   -1.7894 C   0  0  0  0  0  0  0  0  0  0  0  0
    8.9445    7.0108   -1.5687 O   0  0  0  0  0  0  0  0  0  0  0  0
    7.0586    5.6616   -1.7402 N   0  0  0  0  0  0  0  0  0  0  0  0
    6.3303    6.5339   -0.9051 C   0  0  0  0  0  0  0  0  0  0  0  0
    5.9296    5.7678    0.3321 C   0  0  0  0  0  0  0  0  0  0  0  0
    5.1464    6.6914    1.2221 C   0  0  0  0  0  0  0  0  0  0  0  0
    6.3284    4.8839   -2.7289 C   0  0  0  0  0  0  0  0  0  0  0  0
    4.8424    4.4146   -2.7196 C   0  0  0  0  0  0  0  0  0  0  0  0
    4.5421    3.3276   -2.2147 O   0  0  0  0  0  0  0  0  0  0  0  0
    3.9236    5.2897   -3.2832 N   0  0  0  0  0  0  0  0  0  0  0  0
    2.4541    5.0415   -3.3658 C   0  0  0  0  0  0  0  0  0  0  0  0
    1.4509    4.2836   -2.3936 C   0  0  0  0  0  0  0  0  0  0  0  0
    1.9210    3.7016   -1.3352 N   0  0  0  0  0  0  0  0  0  0  0  0
    0.2216    4.2731   -2.6651 O   0  0  0  0  0  0  0  0  0  0  0  0
    4.4201    6.3400   -4.1956 C   0  0  0  0  0  0  0  0  0  0  0  0
    5.1053    5.8269   -5.4375 C   0  0  0  0  0  0  0  0  0  0  0  0
    6.1742    6.4242   -6.0709 C   0  0  0  0  0  0  0  0  0  0  0  0
    6.5922    5.5371   -7.0145 N   0  0  0  0  0  0  0  0  0  0  0  0
    7.7399    5.5929   -7.9118 C   0  0  0  0  0  0  0  0  0  0  0  0
    8.6788    6.8281   -7.8485 C   0  0  0  0  0  0  0  0  0  0  0  0
    9.3569    6.9611   -6.5573 C   0  0  0  0  0  0  0  0  0  0  0  0
   10.1836    5.8309   -6.4207 N   0  0  0  0  0  0  0  0  0  0  0  0
   10.1150    5.4087   -5.1693 C   0  0  0  0  0  0  0  0  0  0  0  0
    9.3186    5.9995   -4.4644 O   0  0  0  0  0  0  0  0  0  0  0  0
   10.9419    4.1928   -4.9757 C   0  0  0  0  0  0  0  0  0  0  0  0
   10.1127    2.9533   -5.0613 C   0  0  0  0  0  0  0  0  0  0  0  0
    9.4943    2.5058   -6.3576 C   0  0  0  0  0  0  0  0  0  0  0  0
    8.8081    1.2066   -6.6034 O   0  0  0  0  0  0  0  0  0  0  0  0
    9.2943   -0.0756   -6.3235 C   0  0  0  0  0  0  0  0  0  0  0  0
    8.4048   -1.1843   -5.7628 C   0  0  0  0  0  0  0  0  0  0  0  0
    9.0709   -2.4317   -5.3636 C   0  0  0  0  0  0  0  0  0  0  0  0
   10.4015   -2.6520   -5.6549 C   0  0  0  0  0  0  0  0  0  0  0  0
   11.1202   -1.6061   -6.2458 C   0  0  0  0  0  0  0  0  0  0  0  0
   10.6680   -0.2806   -6.4984 C   0  0  0  0  0  0  0  0  0  0  0  0
   11.6354    0.7822   -7.0864 C   0  0  0  0  0  0  0  0  0  0  0  0
   12.9365    0.0950   -7.4333 C   0  0  0  0  0  0  0  0  0  0  0  0
   11.0074    1.3973   -8.3922 C   0  0  0  0  0  0  0  0  0  0  0  0
   12.3184    1.8865   -6.2035 C   0  0  0  0  0  0  0  0  0  0  0  0
   11.0899   -3.9354   -5.4847 C   0  0  0  0  0  0  0  0  0  0  0  0
   11.9810   -4.4082   -6.3372 N   0  0  0  0  0  0  0  0  0  0  0  0
   12.4556   -5.5691   -5.8007 C   0  0  0  0  0  0  0  0  0  0  0  0
   13.4434   -6.4353   -6.2985 C   0  0  0  0  0  0  0  0  0  0  0  0
   13.7957   -7.6038   -5.6052 C   0  0  0  0  0  0  0  0  0  0  0  0
   13.1178   -7.8543   -4.3943 C   0  0  0  0  0  0  0  0  0  0  0  0
   12.1382   -6.9873   -3.8541 C   0  0  0  0  0  0  0  0  0  0  0  0
   11.8312   -5.8497   -4.5982 C   0  0  0  0  0  0  0  0  0  0  0  0
   10.9719   -4.7889   -4.4106 N   0  0  0  0  0  0  0  0  0  0  0  0
   14.7879   -8.4487   -6.0796 N   0  0  0  0  0  0  0  0  0  0  0  0
   15.9129   -7.9414   -6.8811 C   0  0  0  0  0  0  0  0  0  0  0  0
   15.8843   -8.5129   -8.3089 C   0  0  0  0  0  0  0  0  0  0  0  0
   15.8453  -10.0393   -8.2689 N   0  3  0  0  0  0  0  0  0  0  0  0
   15.8161  -10.6260   -9.6520 C   0  0  0  0  0  0  0  0  0  0  0  0
   14.6820  -10.5295   -7.4040 C   0  0  0  0  0  0  0  0  0  0  0  0
   14.7067   -9.9099   -5.9849 C   0  0  0  0  0  0  0  0  0  0  0  0
    6.8051   -1.1052   -5.2548 C   0  0  0  0  0  0  0  0  0  0  0  0
    5.7209    0.1990   -4.9619 C   0  0  0  0  0  0  0  0  0  0  0  0
    5.9516   -2.1545   -5.8957 C   0  0  0  0  0  0  0  0  0  0  0  0
    6.8131   -1.8760   -3.9939 C   0  0  0  0  0  0  0  0  0  0  0  0
    5.7524    4.4758   -7.0373 N   0  0  0  0  0  0  0  0  0  0  0  0
    4.8517    4.6352   -6.0627 N   0  0  0  0  0  0  0  0  0  0  0  0
    9.3130    2.4685   -2.5959 C   0  0  0  0  0  0  0  0  0  0  0  0
    9.8097    1.4308   -2.0392 O   0  0  0  0  0  0  0  0  0  0  0  0
    8.0798    2.3838   -3.8534 C   0  0  0  0  0  0  0  0  0  0  0  0
    8.0038    0.9490   -4.0487 C   0  0  0  0  0  0  0  0  0  0  0  0
    7.5971    0.6000   -2.7311 C   0  0  0  0  0  0  0  0  0  0  0  0
    6.6605   -0.3954   -2.4336 O   0  0  0  0  0  0  0  0  0  0  0  0
    6.8761   -1.3823   -1.4629 C   0  0  0  0  0  0  0  0  0  0  0  0
    6.1961   -0.8143   -0.4853 C   0  0  0  0  0  0  0  0  0  0  0  0
    5.6706   -1.7420    0.3807 C   0  0  0  0  0  0  0  0  0  0  0  0
    5.7251   -3.1244    0.1814 C   0  0  0  0  0  0  0  0  0  0  0  0
    6.2972   -3.7930   -0.8888 C   0  0  0  0  0  0  0  0  0  0  0  0
    6.9983   -2.8818   -1.6857 C   0  0  0  0  0  0  0  0  0  0  0  0
    6.1729   -5.2256   -1.2062 C   0  0  0  0  0  0  0  0  0  0  0  0
    5.6718   -6.1046   -0.3554 N   0  0  0  0  0  0  0  0  0  0  0  0
    5.8407   -7.3355   -0.9236 C   0  0  0  0  0  0  0  0  0  0  0  0
    5.5218   -8.5724   -0.3495 C   0  0  0  0  0  0  0  0  0  0  0  0
    5.7610   -9.7432   -1.0826 C   0  0  0  0  0  0  0  0  0  0  0  0
    6.3179   -9.6373   -2.3781 C   0  0  0  0  0  0  0  0  0  0  0  0
    6.6337   -8.3959   -2.9695 C   0  0  0  0  0  0  0  0  0  0  0  0
    6.3754   -7.2610   -2.1905 C   0  0  0  0  0  0  0  0  0  0  0  0
    6.5414   -5.8956   -2.3789 N   0  0  0  0  0  0  0  0  0  0  0  0
    5.4255  -11.0558   -0.5014 C   0  0  0  0  0  0  0  0  0  0  0  0
    5.6220  -12.2384   -1.0678 N   0  0  0  0  0  0  0  0  0  0  0  0
    5.1423  -13.1791   -0.1828 C   0  0  0  0  0  0  0  0  0  0  0  0
    5.1025  -14.5771   -0.2642 C   0  0  0  0  0  0  0  0  0  0  0  0
    4.5712  -15.4237    0.8052 C   0  0  0  0  0  0  0  0  0  0  0  0
    4.0132  -14.6846    1.8774 C   0  0  0  0  0  0  0  0  0  0  0  0
    4.0558  -13.2792    2.0119 C   0  0  0  0  0  0  0  0  0  0  0  0
    4.6287  -12.5600    0.9592 C   0  0  0  0  0  0  0  0  0  0  0  0
    4.8432  -11.2237    0.7492 N   0  0  0  0  0  0  0  0  0  0  0  0
    4.5736  -16.7595    0.7117 N   0  0  0  0  0  0  0  0  0  0  0  0
    5.6751  -17.4630    0.0436 C   0  0  0  0  0  0  0  0  0  0  0  0
    5.1689  -18.1971   -1.2104 C   0  0  0  0  0  0  0  0  0  0  0  0
    4.0037  -19.1274   -0.8677 N   0  3  0  0  0  0  0  0  0  0  0  0
    3.4995  -19.8259   -2.0966 C   0  0  0  0  0  0  0  0  0  0  0  0
    2.8879  -18.3601   -0.1425 C   0  0  0  0  0  0  0  0  0  0  0  0
    3.4241  -17.5909    1.0935 C   0  0  0  0  0  0  0  0  0  0  0  0
   10.4613    3.6726    1.0790 H   0  0  0  0  0  0  0  0  0  0  0  0
    9.4580    4.1003   -0.2375 H   0  0  0  0  0  0  0  0  0  0  0  0
   10.8051    5.1762    0.0773 H   0  0  0  0  0  0  0  0  0  0  0  0
   11.2029    2.2456   -0.6614 H   0  0  0  0  0  0  0  0  0  0  0  0
   12.5431    3.3572   -0.4125 H   0  0  0  0  0  0  0  0  0  0  0  0
   11.9366    3.0134   -2.7383 H   0  0  0  0  0  0  0  0  0  0  0  0
   11.7991    4.7154   -2.2838 H   0  0  0  0  0  0  0  0  0  0  0  0
    8.6176    4.6041   -3.2898 H   0  0  0  0  0  0  0  0  0  0  0  0
   10.1314    5.4383   -2.6881 H   0  0  0  0  0  0  0  0  0  0  0  0
    5.4739    6.9183   -1.4576 H   0  0  0  0  0  0  0  0  0  0  0  0
    6.9539    7.3904   -0.6340 H   0  0  0  0  0  0  0  0  0  0  0  0
    6.8206    5.3886    0.8501 H   0  0  0  0  0  0  0  0  0  0  0  0
    5.3285    4.8918    0.0624 H   0  0  0  0  0  0  0  0  0  0  0  0
    5.7621    7.5494    1.5096 H   0  0  0  0  0  0  0  0  0  0  0  0
    4.8307    6.1602    2.1193 H   0  0  0  0  0  0  0  0  0  0  0  0
    4.2624    7.0616    0.6934 H   0  0  0  0  0  0  0  0  0  0  0  0
    6.8388    3.9579   -2.6924 H   0  0  0  0  0  0  0  0  0  0  0  0
    6.5703    5.3575   -3.6751 H   0  0  0  0  0  0  0  0  0  0  0  0
    2.2628    4.7134   -4.3901 H   0  0  0  0  0  0  0  0  0  0  0  0
    2.0754    6.0670   -3.2552 H   0  0  0  0  0  0  0  0  0  0  0  0
    2.8544    3.2852   -1.3784 H   0  0  0  0  0  0  0  0  0  0  0  0
    1.2556    3.1912   -0.7735 H   0  0  0  0  0  0  0  0  0  0  0  0
    5.1421    6.9471   -3.6269 H   0  0  0  0  0  0  0  0  0  0  0  0
    3.6190    7.0180   -4.4716 H   0  0  0  0  0  0  0  0  0  0  0  0
    6.6687    7.3491   -5.8364 H   0  0  0  0  0  0  0  0  0  0  0  0
    7.3550    5.5419   -8.9302 H   0  0  0  0  0  0  0  0  0  0  0  0
    8.2922    4.6618   -7.7699 H   0  0  0  0  0  0  0  0  0  0  0  0
    8.1221    7.7501   -7.9690 H   0  0  0  0  0  0  0  0  0  0  0  0
    9.5052    6.7241   -8.5536 H   0  0  0  0  0  0  0  0  0  0  0  0
    8.5353    7.0669   -5.8392 H   0  0  0  0  0  0  0  0  0  0  0  0
   10.0034    7.7829   -6.2511 H   0  0  0  0  0  0  0  0  0  0  0  0
   10.6416    5.2254   -7.0891 H   0  0  0  0  0  0  0  0  0  0  0  0
   11.3236    4.3400   -4.0146 H   0  0  0  0  0  0  0  0  0  0  0  0
   11.8399    4.1607   -5.5166 H   0  0  0  0  0  0  0  0  0  0  0  0
    9.3627    3.5139   -4.5582 H   0  0  0  0  0  0  0  0  0  0  0  0
   10.4508    2.0898   -4.4927 H   0  0  0  0  0  0  0  0  0  0  0  0
   10.2941    2.7770   -6.9940 H   0  0  0  0  0  0  0  0  0  0  0  0
    8.7669    3.2428   -6.6502 H   0  0  0  0  0  0  0  0  0  0  0  0
    8.5736   -3.2390   -4.8118 H   0  0  0  0  0  0  0  0  0  0  0  0
   12.1031   -1.9170   -6.5885 H   0  0  0  0  0  0  0  0  0  0  0  0
   12.7698   -0.6450   -8.2021 H   0  0  0  0  0  0  0  0  0  0  0  0
   13.3554   -0.3354   -6.5071 H   0  0  0  0  0  0  0  0  0  0  0  0
   13.6687    0.8152   -7.8008 H   0  0  0  0  0  0  0  0  0  0  0  0
   10.8541    0.6492   -9.1558 H   0  0  0  0  0  0  0  0  0  0  0  0
   11.5965    2.2636   -8.7017 H   0  0  0  0  0  0  0  0  0  0  0  0
    9.9843    1.8093   -8.3708 H   0  0  0  0  0  0  0  0  0  0  0  0
   12.3389    1.7131   -5.1211 H   0  0  0  0  0  0  0  0  0  0  0  0
   13.3757    2.0579   -6.4195 H   0  0  0  0  0  0  0  0  0  0  0  0
   12.0661    2.8688   -6.5807 H   0  0  0  0  0  0  0  0  0  0  0  0
   13.8993   -6.1602   -7.2392 H   0  0  0  0  0  0  0  0  0  0  0  0
   13.3843   -8.7215   -3.7981 H   0  0  0  0  0  0  0  0  0  0  0  0
   11.6700   -7.1916   -2.8982 H   0  0  0  0  0  0  0  0  0  0  0  0
   10.3994   -4.6150   -3.5997 H   0  0  0  0  0  0  0  0  0  0  0  0
   16.8459   -8.2536   -6.3939 H   0  0  0  0  0  0  0  0  0  0  0  0
   15.9576   -6.8477   -6.9206 H   0  0  0  0  0  0  0  0  0  0  0  0
   16.7895   -8.2316   -8.8579 H   0  0  0  0  0  0  0  0  0  0  0  0
   14.9971   -8.1828   -8.8592 H   0  0  0  0  0  0  0  0  0  0  0  0
   16.7148  -10.3521   -7.8184 H   0  0  0  0  0  0  0  0  0  0  0  0
   14.9009  -10.2964  -10.1513 H   0  0  0  0  0  0  0  0  0  0  0  0
   15.8396  -11.7151   -9.5614 H   0  0  0  0  0  0  0  0  0  0  0  0
   16.7011  -10.2768  -10.1910 H   0  0  0  0  0  0  0  0  0  0  0  0
   14.7710  -11.6198   -7.3465 H   0  0  0  0  0  0  0  0  0  0  0  0
   13.7612  -10.2642   -7.9346 H   0  0  0  0  0  0  0  0  0  0  0  0
   15.5882  -10.2775   -5.4453 H   0  0  0  0  0  0  0  0  0  0  0  0
   13.8227  -10.2533   -5.4387 H   0  0  0  0  0  0  0  0  0  0  0  0
    5.4861    0.6350   -5.9203 H   0  0  0  0  0  0  0  0  0  0  0  0
    5.9704    1.1116   -4.3862 H   0  0  0  0  0  0  0  0  0  0  0  0
    4.8985   -0.0275   -4.2616 H   0  0  0  0  0  0  0  0  0  0  0  0
    5.7476   -1.8013   -6.8884 H   0  0  0  0  0  0  0  0  0  0  0  0
    5.0214   -2.2573   -5.2989 H   0  0  0  0  0  0  0  0  0  0  0  0
    6.4525   -3.1350   -5.8671 H   0  0  0  0  0  0  0  0  0  0  0  0
    7.8022   -1.7679   -3.4883 H   0  0  0  0  0  0  0  0  0  0  0  0
    6.5128   -2.9209   -3.9781 H   0  0  0  0  0  0  0  0  0  0  0  0
    5.8690   -1.5933   -3.5051 H   0  0  0  0  0  0  0  0  0  0  0  0
    8.0377    2.6892   -4.9218 H   0  0  0  0  0  0  0  0  0  0  0  0
    7.1713    2.9347   -3.8336 H   0  0  0  0  0  0  0  0  0  0  0  0
    8.9670    0.4768   -4.2511 H   0  0  0  0  0  0  0  0  0  0  0  0
    7.5248    0.9202   -5.0381 H   0  0  0  0  0  0  0  0  0  0  0  0
    7.1509    1.4657   -2.2313 H   0  0  0  0  0  0  0  0  0  0  0  0
    8.4807    0.1306   -2.2575 H   0  0  0  0  0  0  0  0  0  0  0  0
    5.9392    0.2465   -0.5610 H   0  0  0  0  0  0  0  0  0  0  0  0
    5.1798   -1.2361    1.2127 H   0  0  0  0  0  0  0  0  0  0  0  0
    5.2991   -3.7101    0.9846 H   0  0  0  0  0  0  0  0  0  0  0  0
    7.4345   -3.4112   -2.5373 H   0  0  0  0  0  0  0  0  0  0  0  0
    5.1149   -8.5547    0.6550 H   0  0  0  0  0  0  0  0  0  0  0  0
    6.5088  -10.5364   -2.9665 H   0  0  0  0  0  0  0  0  0  0  0  0
    7.0564   -8.3352   -3.9669 H   0  0  0  0  0  0  0  0  0  0  0  0
    6.9014   -5.5051   -3.2370 H   0  0  0  0  0  0  0  0  0  0  0  0
    5.5103  -15.0259   -1.1621 H   0  0  0  0  0  0  0  0  0  0  0  0
    3.5949  -15.2432    2.7149 H   0  0  0  0  0  0  0  0  0  0  0  0
    3.6759  -12.7845    2.9053 H   0  0  0  0  0  0  0  0  0  0  0  0
    4.6048  -10.4832    1.4009 H   0  0  0  0  0  0  0  0  0  0  0  0
    6.0801  -18.2014    0.7465 H   0  0  0  0  0  0  0  0  0  0  0  0
    6.5100  -16.8045   -0.2156 H   0  0  0  0  0  0  0  0  0  0  0  0
    5.9603  -18.8193   -1.6396 H   0  0  0  0  0  0  0  0  0  0  0  0
    4.7992  -17.4918   -1.9626 H   0  0  0  0  0  0  0  0  0  0  0  0
    4.3506  -19.8550   -0.2257 H   0  0  0  0  0  0  0  0  0  0  0  0
    3.1168  -19.0781   -2.7964 H   0  0  0  0  0  0  0  0  0  0  0  0
    2.7127  -20.5226   -1.7969 H   0  0  0  0  0  0  0  0  0  0  0  0
    4.3340  -20.3780   -2.5393 H   0  0  0  0  0  0  0  0  0  0  0  0
    2.1403  -19.1026    0.1560 H   0  0  0  0  0  0  0  0  0  0  0  0
    2.4560  -17.6704   -0.8751 H   0  0  0  0  0  0  0  0  0  0  0  0
    3.7504  -18.3144    1.8512 H   0  0  0  0  0  0  0  0  0  0  0  0
    2.6037  -17.0115    1.5305 H   0  0  0  0  0  0  0  0  0  0  0  0
  1  2  1  0  0  0  0
  1103  1  0  0  0  0
  1104  1  0  0  0  0
  1105  1  0  0  0  0
  2  3  1  0  0  0  0
  2106  1  0  0  0  0
  2107  1  0  0  0  0
  3  4  1  0  0  0  0
  3108  1  0  0  0  0
  3109  1  0  0  0  0
  4  5  1  0  0  0  0
  4 66  1  0  0  0  0
  5  6  1  0  0  0  0
  5110  1  0  0  0  0
  5111  1  0  0  0  0
  6  7  2  0  0  0  0
  6  8  1  0  0  0  0
  8  9  1  0  0  0  0
  8 12  1  0  0  0  0
  9 10  1  0  0  0  0
  9112  1  0  0  0  0
  9113  1  0  0  0  0
 10 11  1  0  0  0  0
 10114  1  0  0  0  0
 10115  1  0  0  0  0
 11116  1  0  0  0  0
 11117  1  0  0  0  0
 11118  1  0  0  0  0
 12 13  1  0  0  0  0
 12119  1  0  0  0  0
 12120  1  0  0  0  0
 13 14  2  0  0  0  0
 13 15  1  0  0  0  0
 15 16  1  0  0  0  0
 15 20  1  0  0  0  0
 16 17  1  0  0  0  0
 16121  1  0  0  0  0
 16122  1  0  0  0  0
 17 18  1  0  0  0  0
 17 19  2  0  0  0  0
 18123  1  0  0  0  0
 18124  1  0  0  0  0
 20 21  1  0  0  0  0
 20125  1  0  0  0  0
 20126  1  0  0  0  0
 21 22  2  0  0  0  0
 21 65  1  0  0  0  0
 22 23  1  0  0  0  0
 22127  1  0  0  0  0
 23 24  1  0  0  0  0
 23 64  1  0  0  0  0
 24 25  1  0  0  0  0
 24128  1  0  0  0  0
 24129  1  0  0  0  0
 25 26  1  0  0  0  0
 25130  1  0  0  0  0
 25131  1  0  0  0  0
 26 27  1  0  0  0  0
 26132  1  0  0  0  0
 26133  1  0  0  0  0
 27 28  1  0  0  0  0
 27134  1  0  0  0  0
 28 29  2  0  0  0  0
 28 30  1  0  0  0  0
 30 31  1  0  0  0  0
 30135  1  0  0  0  0
 30136  1  0  0  0  0
 31 32  1  0  0  0  0
 31137  1  0  0  0  0
 31138  1  0  0  0  0
 32 33  1  0  0  0  0
 32139  1  0  0  0  0
 32140  1  0  0  0  0
 33 34  1  0  0  0  0
 34 35  2  0  0  0  0
 34 39  1  0  0  0  0
 35 36  1  0  0  0  0
 35 60  1  0  0  0  0
 36 37  2  0  0  0  0
 36141  1  0  0  0  0
 37 38  1  0  0  0  0
 37 44  1  0  0  0  0
 38 39  2  0  0  0  0
 38142  1  0  0  0  0
 39 40  1  0  0  0  0
 40 41  1  0  0  0  0
 40 42  1  0  0  0  0
 40 43  1  0  0  0  0
 41143  1  0  0  0  0
 41144  1  0  0  0  0
 41145  1  0  0  0  0
 42146  1  0  0  0  0
 42147  1  0  0  0  0
 42148  1  0  0  0  0
 43149  1  0  0  0  0
 43150  1  0  0  0  0
 43151  1  0  0  0  0
 44 45  2  0  0  0  0
 44 52  1  0  0  0  0
 45 46  1  0  0  0  0
 46 47  2  0  0  0  0
 46 51  1  0  0  0  0
 47 48  1  0  0  0  0
 47152  1  0  0  0  0
 48 49  2  0  0  0  0
 48 53  1  0  0  0  0
 49 50  1  0  0  0  0
 49153  1  0  0  0  0
 50 51  2  0  0  0  0
 50154  1  0  0  0  0
 51 52  1  0  0  0  0
 52155  1  0  0  0  0
 53 54  1  0  0  0  0
 53 59  1  0  0  0  0
 54 55  1  0  0  0  0
 54156  1  0  0  0  0
 54157  1  0  0  0  0
 55 56  1  0  0  0  0
 55158  1  0  0  0  0
 55159  1  0  0  0  0
 56 57  1  0  0  0  0
 56 58  1  0  0  0  0
 56160  1  0  0  0  0
 57161  1  0  0  0  0
 57162  1  0  0  0  0
 57163  1  0  0  0  0
 58 59  1  0  0  0  0
 58164  1  0  0  0  0
 58165  1  0  0  0  0
 59166  1  0  0  0  0
 59167  1  0  0  0  0
 60 61  1  0  0  0  0
 60 62  1  0  0  0  0
 60 63  1  0  0  0  0
 61168  1  0  0  0  0
 61169  1  0  0  0  0
 61170  1  0  0  0  0
 62171  1  0  0  0  0
 62172  1  0  0  0  0
 62173  1  0  0  0  0
 63174  1  0  0  0  0
 63175  1  0  0  0  0
 63176  1  0  0  0  0
 64 65  2  0  0  0  0
 66 67  2  0  0  0  0
 66 68  1  0  0  0  0
 68 69  1  0  0  0  0
 68177  1  0  0  0  0
 68178  1  0  0  0  0
 69 70  1  0  0  0  0
 69179  1  0  0  0  0
 69180  1  0  0  0  0
 70 71  1  0  0  0  0
 70181  1  0  0  0  0
 70182  1  0  0  0  0
 71 72  1  0  0  0  0
 72 73  2  0  0  0  0
 72 77  1  0  0  0  0
 73 74  1  0  0  0  0
 73183  1  0  0  0  0
 74 75  2  0  0  0  0
 74184  1  0  0  0  0
 75 76  1  0  0  0  0
 75185  1  0  0  0  0
 76 77  2  0  0  0  0
 76 78  1  0  0  0  0
 77186  1  0  0  0  0
 78 79  2  0  0  0  0
 78 86  1  0  0  0  0
 79 80  1  0  0  0  0
 80 81  2  0  0  0  0
 80 85  1  0  0  0  0
 81 82  1  0  0  0  0
 81187  1  0  0  0  0
 82 83  2  0  0  0  0
 82 87  1  0  0  0  0
 83 84  1  0  0  0  0
 83188  1  0  0  0  0
 84 85  2  0  0  0  0
 84189  1  0  0  0  0
 85 86  1  0  0  0  0
 86190  1  0  0  0  0
 87 88  2  0  0  0  0
 87 95  1  0  0  0  0
 88 89  1  0  0  0  0
 89 90  2  0  0  0  0
 89 94  1  0  0  0  0
 90 91  1  0  0  0  0
 90191  1  0  0  0  0
 91 92  2  0  0  0  0
 91 96  1  0  0  0  0
 92 93  1  0  0  0  0
 92192  1  0  0  0  0
 93 94  2  0  0  0  0
 93193  1  0  0  0  0
 94 95  1  0  0  0  0
 95194  1  0  0  0  0
 96 97  1  0  0  0  0
 96102  1  0  0  0  0
 97 98  1  0  0  0  0
 97195  1  0  0  0  0
 97196  1  0  0  0  0
 98 99  1  0  0  0  0
 98197  1  0  0  0  0
 98198  1  0  0  0  0
 99100  1  0  0  0  0
 99101  1  0  0  0  0
 99199  1  0  0  0  0
100200  1  0  0  0  0
100201  1  0  0  0  0
100202  1  0  0  0  0
101102  1  0  0  0  0
101203  1  0  0  0  0
101204  1  0  0  0  0
102205  1  0  0  0  0
102206  1  0  0  0  0
M  CHG  2  56   1  99   1
M  END
$$$$
Target_lig_678
 OpenBabel04172506213D

 91 94  0  0  0  0  0  0  0  0999 V2000
    1.9296    1.2198   -1.1938 C   0  0  0  0  0  0  0  0  0  0  0  0
    2.3970    0.1408   -0.1544 C   0  0  0  0  0  0  0  0  0  0  0  0
    1.1075   -0.6570    0.1552 C   0  0  0  0  0  0  0  0  0  0  0  0
    3.3856   -0.7636   -0.9071 C   0  0  0  0  0  0  0  0  0  0  0  0
    2.9930    0.7639    1.1573 C   0  0  0  0  0  0  0  0  0  0  0  0
    3.0331    2.1802    1.2093 C   0  0  0  0  0  0  0  0  0  0  0  0
    3.2654    2.8935    2.3741 C   0  0  0  0  0  0  0  0  0  0  0  0
    3.4733    2.1628    3.5473 C   0  0  0  0  0  0  0  0  0  0  0  0
    3.4896    0.7414    3.6234 C   0  0  0  0  0  0  0  0  0  0  0  0
    3.3759    0.0386    2.3515 C   0  0  0  0  0  0  0  0  0  0  0  0
    3.7284   -1.3032    2.1204 O   0  0  0  0  0  0  0  0  0  0  0  0
    4.5985   -1.8363    3.1120 C   0  0  0  0  0  0  0  0  0  0  0  0
    5.6796   -2.8982    2.8556 C   0  0  0  0  0  0  0  0  0  0  0  0
    6.3810   -3.1655    4.2187 C   0  0  0  0  0  0  0  0  0  0  0  0
    7.6318   -4.0051    4.1850 C   0  0  0  0  0  0  0  0  0  0  0  0
    8.7140   -3.5734    4.5695 O   0  0  0  0  0  0  0  0  0  0  0  0
    7.4338   -5.2897    3.7502 N   0  0  0  0  0  0  0  0  0  0  0  0
    8.5352   -6.2167    3.6030 C   0  0  0  0  0  0  0  0  0  0  0  0
    8.7861   -7.0705    4.8436 C   0  0  0  0  0  0  0  0  0  0  0  0
    7.6033   -7.9803    5.1585 C   0  0  0  0  0  0  0  0  0  0  0  0
    7.9611   -8.8663    6.2716 N   0  0  0  0  0  0  0  0  0  0  0  0
    7.0605   -9.6433    6.6373 N   0  3  0  0  0  0  0  0  0  0  0  0
    6.2254  -10.3486    6.9589 N   0  5  0  0  0  0  0  0  0  0  0  0
    3.4101    0.1479    5.1098 C   0  0  0  0  0  0  0  0  0  0  0  0
    3.1935    1.2464    6.2061 C   0  0  0  0  0  0  0  0  0  0  0  0
    2.1649   -0.7643    5.2024 C   0  0  0  0  0  0  0  0  0  0  0  0
    4.6576   -0.5593    5.7132 C   0  0  0  0  0  0  0  0  0  0  0  0
    3.1735    4.3665    2.3539 C   0  0  0  0  0  0  0  0  0  0  0  0
    2.7263    5.1348    1.3770 N   0  0  0  0  0  0  0  0  0  0  0  0
    2.7738    6.4336    1.8413 C   0  0  0  0  0  0  0  0  0  0  0  0
    3.2769    6.4609    3.1251 C   0  0  0  0  0  0  0  0  0  0  0  0
    3.5177    5.1586    3.4301 N   0  0  0  0  0  0  0  0  0  0  0  0
    3.4724    7.6281    3.8613 C   0  0  0  0  0  0  0  0  0  0  0  0
    3.1644    8.8613    3.2649 C   0  0  0  0  0  0  0  0  0  0  0  0
    2.6102    8.8495    1.9742 C   0  0  0  0  0  0  0  0  0  0  0  0
    2.4116    7.6558    1.2460 C   0  0  0  0  0  0  0  0  0  0  0  0
    3.4671   10.0375    3.9181 N   0  0  0  0  0  0  0  0  0  0  0  0
    2.5921   11.2146    3.9350 C   0  0  0  0  0  0  0  0  0  0  0  0
    3.4143   12.4875    3.6199 C   0  0  0  0  0  0  0  0  0  0  0  0
    4.5770   12.6460    4.5278 N   0  0  0  0  0  0  0  0  0  0  0  0
    5.4329   11.4442    4.4206 C   0  0  0  0  0  0  0  0  0  0  0  0
    4.6685   10.1445    4.7582 C   0  0  0  0  0  0  0  0  0  0  0  0
    5.3358   13.8482    4.1992 C   0  0  0  0  0  0  0  0  0  0  0  0
    1.4270    0.7712   -2.0589 H   0  0  0  0  0  0  0  0  0  0  0  0
    2.7758    1.7975   -1.5860 H   0  0  0  0  0  0  0  0  0  0  0  0
    1.2078    1.9211   -0.7528 H   0  0  0  0  0  0  0  0  0  0  0  0
    0.6673   -1.0581   -0.7692 H   0  0  0  0  0  0  0  0  0  0  0  0
    0.3438   -0.0152    0.6120 H   0  0  0  0  0  0  0  0  0  0  0  0
    1.2851   -1.5043    0.8221 H   0  0  0  0  0  0  0  0  0  0  0  0
    2.8982   -1.2287   -1.7750 H   0  0  0  0  0  0  0  0  0  0  0  0
    3.7719   -1.5755   -0.2888 H   0  0  0  0  0  0  0  0  0  0  0  0
    4.2378   -0.1893   -1.2862 H   0  0  0  0  0  0  0  0  0  0  0  0
    2.8545    2.7846    0.3228 H   0  0  0  0  0  0  0  0  0  0  0  0
    3.5858    2.7440    4.4507 H   0  0  0  0  0  0  0  0  0  0  0  0
    3.9335   -2.2960    3.8433 H   0  0  0  0  0  0  0  0  0  0  0  0
    5.1990   -1.0082    3.4813 H   0  0  0  0  0  0  0  0  0  0  0  0
    6.4081   -2.5266    2.1285 H   0  0  0  0  0  0  0  0  0  0  0  0
    5.2521   -3.8192    2.4495 H   0  0  0  0  0  0  0  0  0  0  0  0
    5.6857   -3.6334    4.9296 H   0  0  0  0  0  0  0  0  0  0  0  0
    6.6919   -2.2126    4.6688 H   0  0  0  0  0  0  0  0  0  0  0  0
    6.4895   -5.6087    3.5785 H   0  0  0  0  0  0  0  0  0  0  0  0
    9.4428   -5.6504    3.3656 H   0  0  0  0  0  0  0  0  0  0  0  0
    8.3003   -6.8473    2.7406 H   0  0  0  0  0  0  0  0  0  0  0  0
    9.0098   -6.4369    5.7108 H   0  0  0  0  0  0  0  0  0  0  0  0
    9.6779   -7.6850    4.6661 H   0  0  0  0  0  0  0  0  0  0  0  0
    7.3492   -8.5811    4.2771 H   0  0  0  0  0  0  0  0  0  0  0  0
    6.7267   -7.3796    5.4283 H   0  0  0  0  0  0  0  0  0  0  0  0
    2.3084    1.8593    6.0220 H   0  0  0  0  0  0  0  0  0  0  0  0
    4.0774    1.8957    6.2845 H   0  0  0  0  0  0  0  0  0  0  0  0
    3.0654    0.7962    7.1999 H   0  0  0  0  0  0  0  0  0  0  0  0
    1.2459   -0.1697    5.1445 H   0  0  0  0  0  0  0  0  0  0  0  0
    2.1473   -1.3155    6.1498 H   0  0  0  0  0  0  0  0  0  0  0  0
    2.1016   -1.5016    4.3987 H   0  0  0  0  0  0  0  0  0  0  0  0
    5.5896   -0.0528    5.4393 H   0  0  0  0  0  0  0  0  0  0  0  0
    4.7167   -1.6149    5.4782 H   0  0  0  0  0  0  0  0  0  0  0  0
    4.6267   -0.5979    6.8104 H   0  0  0  0  0  0  0  0  0  0  0  0
    3.9023    4.8183    4.2986 H   0  0  0  0  0  0  0  0  0  0  0  0
    3.8584    7.5783    4.8729 H   0  0  0  0  0  0  0  0  0  0  0  0
    2.3713    9.7881    1.4788 H   0  0  0  0  0  0  0  0  0  0  0  0
    2.0180    7.6796    0.2373 H   0  0  0  0  0  0  0  0  0  0  0  0
    2.1506   11.3111    4.9360 H   0  0  0  0  0  0  0  0  0  0  0  0
    1.7556   11.1338    3.2327 H   0  0  0  0  0  0  0  0  0  0  0  0
    2.7555   13.3585    3.7131 H   0  0  0  0  0  0  0  0  0  0  0  0
    3.7529   12.4380    2.5762 H   0  0  0  0  0  0  0  0  0  0  0  0
    6.2855   11.5286    5.1046 H   0  0  0  0  0  0  0  0  0  0  0  0
    5.8380   11.3585    3.4020 H   0  0  0  0  0  0  0  0  0  0  0  0
    4.3813   10.1343    5.8165 H   0  0  0  0  0  0  0  0  0  0  0  0
    5.3601    9.3096    4.5932 H   0  0  0  0  0  0  0  0  0  0  0  0
    4.7080   14.7377    4.3162 H   0  0  0  0  0  0  0  0  0  0  0  0
    5.7262   13.8304    3.1755 H   0  0  0  0  0  0  0  0  0  0  0  0
    6.1794   13.9664    4.8887 H   0  0  0  0  0  0  0  0  0  0  0  0
  1  2  1  0  0  0  0
  1 44  1  0  0  0  0
  1 45  1  0  0  0  0
  1 46  1  0  0  0  0
  2  3  1  0  0  0  0
  2  4  1  0  0  0  0
  2  5  1  0  0  0  0
  3 47  1  0  0  0  0
  3 48  1  0  0  0  0
  3 49  1  0  0  0  0
  4 50  1  0  0  0  0
  4 51  1  0  0  0  0
  4 52  1  0  0  0  0
  5  6  2  0  0  0  0
  5 10  1  0  0  0  0
  6  7  1  0  0  0  0
  6 53  1  0  0  0  0
  7  8  2  0  0  0  0
  7 28  1  0  0  0  0
  8  9  1  0  0  0  0
  8 54  1  0  0  0  0
  9 10  2  0  0  0  0
  9 24  1  0  0  0  0
 10 11  1  0  0  0  0
 11 12  1  0  0  0  0
 12 13  1  0  0  0  0
 12 55  1  0  0  0  0
 12 56  1  0  0  0  0
 13 14  1  0  0  0  0
 13 57  1  0  0  0  0
 13 58  1  0  0  0  0
 14 15  1  0  0  0  0
 14 59  1  0  0  0  0
 14 60  1  0  0  0  0
 15 16  2  0  0  0  0
 15 17  1  0  0  0  0
 17 18  1  0  0  0  0
 17 61  1  0  0  0  0
 18 19  1  0  0  0  0
 18 62  1  0  0  0  0
 18 63  1  0  0  0  0
 19 20  1  0  0  0  0
 19 64  1  0  0  0  0
 19 65  1  0  0  0  0
 20 21  1  0  0  0  0
 20 66  1  0  0  0  0
 20 67  1  0  0  0  0
 21 22  2  0  0  0  0
 22 23  2  0  0  0  0
 24 25  1  0  0  0  0
 24 26  1  0  0  0  0
 24 27  1  0  0  0  0
 25 68  1  0  0  0  0
 25 69  1  0  0  0  0
 25 70  1  0  0  0  0
 26 71  1  0  0  0  0
 26 72  1  0  0  0  0
 26 73  1  0  0  0  0
 27 74  1  0  0  0  0
 27 75  1  0  0  0  0
 27 76  1  0  0  0  0
 28 29  2  0  0  0  0
 28 32  1  0  0  0  0
 29 30  1  0  0  0  0
 30 31  2  0  0  0  0
 30 36  1  0  0  0  0
 31 32  1  0  0  0  0
 31 33  1  0  0  0  0
 32 77  1  0  0  0  0
 33 34  2  0  0  0  0
 33 78  1  0  0  0  0
 34 35  1  0  0  0  0
 34 37  1  0  0  0  0
 35 36  2  0  0  0  0
 35 79  1  0  0  0  0
 36 80  1  0  0  0  0
 37 38  1  0  0  0  0
 37 42  1  0  0  0  0
 38 39  1  0  0  0  0
 38 81  1  0  0  0  0
 38 82  1  0  0  0  0
 39 40  1  0  0  0  0
 39 83  1  0  0  0  0
 39 84  1  0  0  0  0
 40 41  1  0  0  0  0
 40 43  1  0  0  0  0
 41 42  1  0  0  0  0
 41 85  1  0  0  0  0
 41 86  1  0  0  0  0
 42 87  1  0  0  0  0
 42 88  1  0  0  0  0
 43 89  1  0  0  0  0
 43 90  1  0  0  0  0
 43 91  1  0  0  0  0
M  CHG  2  22   1  23  -1
M  END
$$$$
Target_lig_709
 OpenBabel04172506213D

 80 85  0  0  0  0  0  0  0  0999 V2000
    1.5418   -2.7191   -1.1485 C   0  0  0  0  0  0  0  0  0  0  0  0
    0.5118   -1.6968   -1.0058 N   0  0  0  0  0  0  0  0  0  0  0  0
   -0.8046   -2.2143   -1.4370 C   0  0  0  0  0  0  0  0  0  0  0  0
   -1.9229   -1.1575   -1.3090 C   0  0  0  0  0  0  0  0  0  0  0  0
   -1.9658   -0.6848    0.0789 N   0  0  0  0  0  0  0  0  0  0  0  0
   -0.6778   -0.1704    0.5752 C   0  0  0  0  0  0  0  0  0  0  0  0
    0.4153   -1.2434    0.3984 C   0  0  0  0  0  0  0  0  0  0  0  0
   -3.1457   -0.3597    0.7166 C   0  0  0  0  0  0  0  0  0  0  0  0
   -4.3131   -0.0350    0.0066 C   0  0  0  0  0  0  0  0  0  0  0  0
   -5.4794    0.2250    0.7311 C   0  0  0  0  0  0  0  0  0  0  0  0
   -5.5370    0.1871    2.1158 C   0  0  0  0  0  0  0  0  0  0  0  0
   -4.3889   -0.1418    2.8374 C   0  0  0  0  0  0  0  0  0  0  0  0
   -3.2151   -0.4128    2.1203 C   0  0  0  0  0  0  0  0  0  0  0  0
   -6.7977    0.4942    2.5610 N   0  0  0  0  0  0  0  0  0  0  0  0
   -7.5261    0.6816    1.4783 C   0  0  0  0  0  0  0  0  0  0  0  0
   -6.7518    0.5481    0.3493 N   0  0  0  0  0  0  0  0  0  0  0  0
   -8.9402    1.0124    1.4581 C   0  0  0  0  0  0  0  0  0  0  0  0
   -9.4667    1.7571    2.5235 C   0  0  0  0  0  0  0  0  0  0  0  0
  -10.8289    2.0530    2.4700 C   0  0  0  0  0  0  0  0  0  0  0  0
  -11.6646    1.6351    1.4459 C   0  0  0  0  0  0  0  0  0  0  0  0
  -11.1334    0.8799    0.3947 C   0  0  0  0  0  0  0  0  0  0  0  0
   -9.7636    0.5758    0.4115 C   0  0  0  0  0  0  0  0  0  0  0  0
  -12.9513    2.0570    1.6644 N   0  0  0  0  0  0  0  0  0  0  0  0
  -12.9232    2.7483    2.7899 C   0  0  0  0  0  0  0  0  0  0  0  0
  -11.6522    2.7509    3.3138 N   0  0  0  0  0  0  0  0  0  0  0  0
  -14.0674    3.3824    3.4453 C   0  0  0  0  0  0  0  0  0  0  0  0
  -15.3580    2.8774    3.2170 C   0  0  0  0  0  0  0  0  0  0  0  0
  -16.4585    3.4193    3.8879 C   0  0  0  0  0  0  0  0  0  0  0  0
  -16.2790    4.5104    4.7406 C   0  0  0  0  0  0  0  0  0  0  0  0
  -15.0103    5.0382    4.9537 C   0  0  0  0  0  0  0  0  0  0  0  0
  -13.9069    4.4755    4.3107 C   0  0  0  0  0  0  0  0  0  0  0  0
  -17.7484    2.9747    3.7772 O   0  0  0  0  0  0  0  0  0  0  0  0
  -17.9040    1.5863    3.4729 C   0  0  0  0  0  0  0  0  0  0  0  0
  -19.2109    1.0933    4.0864 C   0  0  0  0  0  0  0  0  0  0  0  0
  -20.4528    1.8094    3.5511 C   0  0  0  0  0  0  0  0  0  0  0  0
  -21.7105    1.2763    4.2155 C   0  0  0  0  0  0  0  0  0  0  0  0
  -21.6989    0.4195    5.0954 O   0  0  0  0  0  0  0  0  0  0  0  0
  -22.8760    1.8428    3.7432 N   0  0  0  0  0  0  0  0  0  0  0  0
  -24.1712    1.4571    4.2716 C   0  0  0  0  0  0  0  0  0  0  0  0
  -24.5696    2.2473    5.5174 C   0  0  0  0  0  0  0  0  0  0  0  0
  -24.7394    3.7354    5.2268 C   0  0  0  0  0  0  0  0  0  0  0  0
  -25.1778    4.4149    6.4516 N   0  0  0  0  0  0  0  0  0  0  0  0
  -25.3132    5.6479    6.3540 N   0  3  0  0  0  0  0  0  0  0  0  0
  -25.4372    6.7759    6.2509 N   0  5  0  0  0  0  0  0  0  0  0  0
    1.6295   -3.0257   -2.1965 H   0  0  0  0  0  0  0  0  0  0  0  0
    1.3365   -3.6087   -0.5429 H   0  0  0  0  0  0  0  0  0  0  0  0
    2.5180   -2.3178   -0.8555 H   0  0  0  0  0  0  0  0  0  0  0  0
   -1.0811   -3.0918   -0.8346 H   0  0  0  0  0  0  0  0  0  0  0  0
   -0.7543   -2.5400   -2.4823 H   0  0  0  0  0  0  0  0  0  0  0  0
   -2.8632   -1.6355   -1.6067 H   0  0  0  0  0  0  0  0  0  0  0  0
   -1.7373   -0.3182   -1.9912 H   0  0  0  0  0  0  0  0  0  0  0  0
   -0.7052    0.1232    1.6293 H   0  0  0  0  0  0  0  0  0  0  0  0
   -0.4086    0.7334    0.0126 H   0  0  0  0  0  0  0  0  0  0  0  0
    0.1893   -2.0913    1.0601 H   0  0  0  0  0  0  0  0  0  0  0  0
    1.3736   -0.8200    0.7206 H   0  0  0  0  0  0  0  0  0  0  0  0
   -4.3088    0.0259   -1.0748 H   0  0  0  0  0  0  0  0  0  0  0  0
   -4.4036   -0.2073    3.9189 H   0  0  0  0  0  0  0  0  0  0  0  0
   -2.3353   -0.7175    2.6829 H   0  0  0  0  0  0  0  0  0  0  0  0
   -7.0726    0.6743   -0.5988 H   0  0  0  0  0  0  0  0  0  0  0  0
   -8.8420    2.0890    3.3462 H   0  0  0  0  0  0  0  0  0  0  0  0
  -11.7739    0.5338   -0.4082 H   0  0  0  0  0  0  0  0  0  0  0  0
   -9.3662   -0.0339   -0.3945 H   0  0  0  0  0  0  0  0  0  0  0  0
  -11.3738    3.1710    4.1876 H   0  0  0  0  0  0  0  0  0  0  0  0
  -15.4782    2.0534    2.5178 H   0  0  0  0  0  0  0  0  0  0  0  0
  -17.1366    4.9398    5.2530 H   0  0  0  0  0  0  0  0  0  0  0  0
  -14.8785    5.8851    5.6236 H   0  0  0  0  0  0  0  0  0  0  0  0
  -12.9306    4.9185    4.4841 H   0  0  0  0  0  0  0  0  0  0  0  0
  -17.0918    0.9878    3.9051 H   0  0  0  0  0  0  0  0  0  0  0  0
  -17.9129    1.4530    2.3855 H   0  0  0  0  0  0  0  0  0  0  0  0
  -19.1646    1.2380    5.1736 H   0  0  0  0  0  0  0  0  0  0  0  0
  -19.3024    0.0146    3.9095 H   0  0  0  0  0  0  0  0  0  0  0  0
  -20.5348    1.6582    2.4685 H   0  0  0  0  0  0  0  0  0  0  0  0
  -20.3917    2.8861    3.7473 H   0  0  0  0  0  0  0  0  0  0  0  0
  -22.8287    2.5806    3.0521 H   0  0  0  0  0  0  0  0  0  0  0  0
  -24.1468    0.3889    4.5163 H   0  0  0  0  0  0  0  0  0  0  0  0
  -24.9059    1.5978    3.4721 H   0  0  0  0  0  0  0  0  0  0  0  0
  -23.8263    2.1078    6.3119 H   0  0  0  0  0  0  0  0  0  0  0  0
  -25.5160    1.8450    5.9011 H   0  0  0  0  0  0  0  0  0  0  0  0
  -25.4872    3.8786    4.4373 H   0  0  0  0  0  0  0  0  0  0  0  0
  -23.7915    4.1655    4.8827 H   0  0  0  0  0  0  0  0  0  0  0  0
  1  2  1  0  0  0  0
  1 45  1  0  0  0  0
  1 46  1  0  0  0  0
  1 47  1  0  0  0  0
  2  3  1  0  0  0  0
  2  7  1  0  0  0  0
  3  4  1  0  0  0  0
  3 48  1  0  0  0  0
  3 49  1  0  0  0  0
  4  5  1  0  0  0  0
  4 50  1  0  0  0  0
  4 51  1  0  0  0  0
  5  6  1  0  0  0  0
  5  8  1  0  0  0  0
  6  7  1  0  0  0  0
  6 52  1  0  0  0  0
  6 53  1  0  0  0  0
  7 54  1  0  0  0  0
  7 55  1  0  0  0  0
  8  9  2  0  0  0  0
  8 13  1  0  0  0  0
  9 10  1  0  0  0  0
  9 56  1  0  0  0  0
 10 11  2  0  0  0  0
 10 16  1  0  0  0  0
 11 12  1  0  0  0  0
 11 14  1  0  0  0  0
 12 13  2  0  0  0  0
 12 57  1  0  0  0  0
 13 58  1  0  0  0  0
 14 15  2  0  0  0  0
 15 16  1  0  0  0  0
 15 17  1  0  0  0  0
 16 59  1  0  0  0  0
 17 18  2  0  0  0  0
 17 22  1  0  0  0  0
 18 19  1  0  0  0  0
 18 60  1  0  0  0  0
 19 20  2  0  0  0  0
 19 25  1  0  0  0  0
 20 21  1  0  0  0  0
 20 23  1  0  0  0  0
 21 22  2  0  0  0  0
 21 61  1  0  0  0  0
 22 62  1  0  0  0  0
 23 24  2  0  0  0  0
 24 25  1  0  0  0  0
 24 26  1  0  0  0  0
 25 63  1  0  0  0  0
 26 27  2  0  0  0  0
 26 31  1  0  0  0  0
 27 28  1  0  0  0  0
 27 64  1  0  0  0  0
 28 29  2  0  0  0  0
 28 32  1  0  0  0  0
 29 30  1  0  0  0  0
 29 65  1  0  0  0  0
 30 31  2  0  0  0  0
 30 66  1  0  0  0  0
 31 67  1  0  0  0  0
 32 33  1  0  0  0  0
 33 34  1  0  0  0  0
 33 68  1  0  0  0  0
 33 69  1  0  0  0  0
 34 35  1  0  0  0  0
 34 70  1  0  0  0  0
 34 71  1  0  0  0  0
 35 36  1  0  0  0  0
 35 72  1  0  0  0  0
 35 73  1  0  0  0  0
 36 37  2  0  0  0  0
 36 38  1  0  0  0  0
 38 39  1  0  0  0  0
 38 74  1  0  0  0  0
 39 40  1  0  0  0  0
 39 75  1  0  0  0  0
 39 76  1  0  0  0  0
 40 41  1  0  0  0  0
 40 77  1  0  0  0  0
 40 78  1  0  0  0  0
 41 42  1  0  0  0  0
 41 79  1  0  0  0  0
 41 80  1  0  0  0  0
 42 43  2  0  0  0  0
 43 44  2  0  0  0  0
M  CHG  2  43   1  44  -1
M  END
$$$$
Target_lig_726
 OpenBabel04172506213D

 48 51  0  0  1  0  0  0  0  0999 V2000
    9.0485   -1.6258   -2.4193 C   0  0  0  0  0  0  0  0  0  0  0  0
    8.2043   -2.7035   -2.8113 O   0  0  0  0  0  0  0  0  0  0  0  0
    7.5625   -3.3697   -1.8052 C   0  0  0  0  0  0  0  0  0  0  0  0
    7.7005   -3.1157   -0.4385 C   0  0  0  0  0  0  0  0  0  0  0  0
    6.9569   -3.8545    0.4916 C   0  0  0  0  0  0  0  0  0  0  0  0
    6.0877   -4.8776    0.0853 C   0  0  0  0  0  0  0  0  0  0  0  0
    5.9645   -5.1130   -1.2876 C   0  0  0  0  0  0  0  0  0  0  0  0
    6.6925   -4.3739   -2.2205 C   0  0  0  0  0  0  0  0  0  0  0  0
    5.2501   -5.5749    0.9424 N   0  0  0  0  0  0  0  0  0  0  0  0
    5.2427   -5.3546    2.3774 C   0  0  0  0  0  0  0  0  0  0  0  0
    6.2866   -6.2315    3.1125 C   0  0  3  0  0  0  0  0  0  0  0  0
    6.2501   -5.7808    4.5613 C   0  0  0  0  0  0  0  0  0  0  0  0
    7.1695   -6.3663    5.5403 N   0  0  0  0  0  0  0  0  0  0  0  0
    6.6658   -6.4660    6.8417 C   0  0  0  0  0  0  0  0  0  0  0  0
    7.4159   -5.5404    7.5597 C   0  0  0  0  0  0  0  0  0  0  0  0
    6.8185   -4.9110    8.6665 C   0  0  0  0  0  0  0  0  0  0  0  0
    5.5075   -5.2691    9.0001 C   0  0  0  0  0  0  0  0  0  0  0  0
    4.8677   -6.3465    8.3879 C   0  0  0  0  0  0  0  0  0  0  0  0
    5.4540   -6.9965    7.3012 C   0  0  0  0  0  0  0  0  0  0  0  0
    4.5386   -4.1904   10.2165 Br  0  0  0  0  0  0  0  0  0  0  0  0
    8.6776   -5.4574    6.9054 C   0  0  0  0  0  0  0  0  0  0  0  0
    8.5069   -5.9901    5.6192 C   0  0  0  0  0  0  0  0  0  0  0  0
    9.5307   -5.9544    4.6611 C   0  0  0  0  0  0  0  0  0  0  0  0
   10.7616   -5.4138    5.0377 C   0  0  0  0  0  0  0  0  0  0  0  0
   10.9585   -4.9117    6.3224 C   0  0  0  0  0  0  0  0  0  0  0  0
    9.9269   -4.9092    7.2600 C   0  0  0  0  0  0  0  0  0  0  0  0
   12.6454   -4.2026    6.8087 Br  0  0  0  0  0  0  0  0  0  0  0  0
    5.9311   -7.6157    2.9933 O   0  0  0  0  0  0  0  0  0  0  0  0
    9.4171   -1.1445   -3.3299 H   0  0  0  0  0  0  0  0  0  0  0  0
    9.9140   -1.9931   -1.8582 H   0  0  0  0  0  0  0  0  0  0  0  0
    8.4980   -0.8710   -1.8474 H   0  0  0  0  0  0  0  0  0  0  0  0
    8.3628   -2.3493   -0.0625 H   0  0  0  0  0  0  0  0  0  0  0  0
    7.0918   -3.6084    1.5360 H   0  0  0  0  0  0  0  0  0  0  0  0
    5.2667   -5.8692   -1.6452 H   0  0  0  0  0  0  0  0  0  0  0  0
    6.5637   -4.5731   -3.2831 H   0  0  0  0  0  0  0  0  0  0  0  0
    5.1417   -6.5534    0.6778 H   0  0  0  0  0  0  0  0  0  0  0  0
    4.2416   -5.6222    2.7318 H   0  0  0  0  0  0  0  0  0  0  0  0
    5.3628   -4.2921    2.6161 H   0  0  0  0  0  0  0  0  0  0  0  0
    7.2797   -6.1044    2.6751 H   0  0  0  0  0  0  0  0  0  0  0  0
    5.2344   -5.9587    4.9377 H   0  0  0  0  0  0  0  0  0  0  0  0
    6.4207   -4.6963    4.6238 H   0  0  0  0  0  0  0  0  0  0  0  0
    7.3206   -4.0825    9.1548 H   0  0  0  0  0  0  0  0  0  0  0  0
    3.8664   -6.6389    8.6946 H   0  0  0  0  0  0  0  0  0  0  0  0
    4.9205   -7.7639    6.7490 H   0  0  0  0  0  0  0  0  0  0  0  0
    9.3852   -6.3429    3.6534 H   0  0  0  0  0  0  0  0  0  0  0  0
   11.5749   -5.3826    4.3117 H   0  0  0  0  0  0  0  0  0  0  0  0
   10.0774   -4.5135    8.2613 H   0  0  0  0  0  0  0  0  0  0  0  0
    5.0258   -7.7367    3.3288 H   0  0  0  0  0  0  0  0  0  0  0  0
  1  2  1  0  0  0  0
  1 29  1  0  0  0  0
  1 30  1  0  0  0  0
  1 31  1  0  0  0  0
  2  3  1  0  0  0  0
  3  4  2  0  0  0  0
  3  8  1  0  0  0  0
  4  5  1  0  0  0  0
  4 32  1  0  0  0  0
  5  6  2  0  0  0  0
  5 33  1  0  0  0  0
  6  7  1  0  0  0  0
  6  9  1  0  0  0  0
  7  8  2  0  0  0  0
  7 34  1  0  0  0  0
  8 35  1  0  0  0  0
  9 10  1  0  0  0  0
  9 36  1  0  0  0  0
 10 11  1  0  0  0  0
 10 37  1  0  0  0  0
 10 38  1  0  0  0  0
 11 12  1  0  0  0  0
 11 28  1  0  0  0  0
 11 39  1  0  0  0  0
 12 13  1  0  0  0  0
 12 40  1  0  0  0  0
 12 41  1  0  0  0  0
 13 14  1  0  0  0  0
 13 22  1  0  0  0  0
 14 15  2  0  0  0  0
 14 19  1  0  0  0  0
 15 16  1  0  0  0  0
 15 21  1  0  0  0  0
 16 17  2  0  0  0  0
 16 42  1  0  0  0  0
 17 18  1  0  0  0  0
 17 20  1  0  0  0  0
 18 19  2  0  0  0  0
 18 43  1  0  0  0  0
 19 44  1  0  0  0  0
 21 22  2  0  0  0  0
 21 26  1  0  0  0  0
 22 23  1  0  0  0  0
 23 24  2  0  0  0  0
 23 45  1  0  0  0  0
 24 25  1  0  0  0  0
 24 46  1  0  0  0  0
 25 26  2  0  0  0  0
 25 27  1  0  0  0  0
 26 47  1  0  0  0  0
 28 48  1  0  0  0  0
M  END
$$$$
Target_lig_727
 OpenBabel04172506213D

 52 55  0  0  1  0  0  0  0  0999 V2000
    9.3719   -2.9768   -0.3857 C   0  0  0  0  0  0  0  0  0  0  0  0
    8.5159   -4.0223    0.0550 O   0  0  0  0  0  0  0  0  0  0  0  0
    7.7899   -3.7833    1.1898 C   0  0  0  0  0  0  0  0  0  0  0  0
    7.8622   -2.6406    1.9899 C   0  0  0  0  0  0  0  0  0  0  0  0
    7.0379   -2.4871    3.1183 C   0  0  0  0  0  0  0  0  0  0  0  0
    6.1326   -3.5189    3.4794 C   0  0  0  0  0  0  0  0  0  0  0  0
    6.0868   -4.6600    2.6584 C   0  0  0  0  0  0  0  0  0  0  0  0
    6.9012   -4.7918    1.5403 C   0  0  0  0  0  0  0  0  0  0  0  0
    5.1779   -3.4971    4.5012 N   0  0  0  0  0  0  0  0  0  0  0  0
    5.0067   -2.3728    5.3993 C   0  0  0  0  0  0  0  0  0  0  0  0
    5.9823   -2.4323    6.5997 C   0  0  3  0  0  0  0  0  0  0  0  0
    5.8387   -1.0999    7.3111 C   0  0  0  0  0  0  0  0  0  0  0  0
    6.6270   -0.8192    8.5121 N   0  0  0  0  0  0  0  0  0  0  0  0
    5.9885   -0.0127    9.4599 C   0  0  0  0  0  0  0  0  0  0  0  0
    6.6971    1.1828    9.4006 C   0  0  0  0  0  0  0  0  0  0  0  0
    6.0089    2.3771    9.6751 C   0  0  0  0  0  0  0  0  0  0  0  0
    4.6481    2.2934    9.9953 C   0  0  0  0  0  0  0  0  0  0  0  0
    4.0300    1.0668   10.2458 C   0  0  0  0  0  0  0  0  0  0  0  0
    4.7084   -0.1279   10.0170 C   0  0  0  0  0  0  0  0  0  0  0  0
    3.5932    3.8662    9.9586 Br  0  0  0  0  0  0  0  0  0  0  0  0
    8.0260    0.8410    9.0119 C   0  0  0  0  0  0  0  0  0  0  0  0
    7.9645   -0.4410    8.4508 C   0  0  0  0  0  0  0  0  0  0  0  0
    9.0786   -1.0457    7.8496 C   0  0  0  0  0  0  0  0  0  0  0  0
   10.2929   -0.3480    7.8769 C   0  0  0  0  0  0  0  0  0  0  0  0
   10.3780    0.9127    8.4624 C   0  0  0  0  0  0  0  0  0  0  0  0
    9.2540    1.5314    9.0135 C   0  0  0  0  0  0  0  0  0  0  0  0
   12.0402    1.8178    8.4997 Br  0  0  0  0  0  0  0  0  0  0  0  0
    5.6214   -3.5213    7.4635 O   0  0  0  0  0  0  0  0  0  0  0  0
    7.1019   -1.3850    3.9391 O   0  0  0  0  0  0  0  0  0  0  0  0
    7.9211   -0.2919    3.5489 C   0  0  0  0  0  0  0  0  0  0  0  0
    9.8208   -3.2914   -1.3316 H   0  0  0  0  0  0  0  0  0  0  0  0
   10.1818   -2.8089    0.3316 H   0  0  0  0  0  0  0  0  0  0  0  0
    8.8118   -2.0539   -0.5739 H   0  0  0  0  0  0  0  0  0  0  0  0
    8.5668   -1.8603    1.7331 H   0  0  0  0  0  0  0  0  0  0  0  0
    5.3733   -5.4543    2.8773 H   0  0  0  0  0  0  0  0  0  0  0  0
    6.8069   -5.6767    0.9161 H   0  0  0  0  0  0  0  0  0  0  0  0
    5.1130   -4.3967    4.9777 H   0  0  0  0  0  0  0  0  0  0  0  0
    3.9800   -2.4362    5.7841 H   0  0  0  0  0  0  0  0  0  0  0  0
    5.0359   -1.4153    4.8666 H   0  0  0  0  0  0  0  0  0  0  0  0
    7.0122   -2.5992    6.2766 H   0  0  0  0  0  0  0  0  0  0  0  0
    4.7835   -0.9926    7.5955 H   0  0  0  0  0  0  0  0  0  0  0  0
    6.0598   -0.2741    6.6205 H   0  0  0  0  0  0  0  0  0  0  0  0
    6.4883    3.3326    9.4939 H   0  0  0  0  0  0  0  0  0  0  0  0
    2.9808    1.0279   10.5314 H   0  0  0  0  0  0  0  0  0  0  0  0
    4.2046   -1.0855   10.0970 H   0  0  0  0  0  0  0  0  0  0  0  0
    9.0158   -2.0245    7.3842 H   0  0  0  0  0  0  0  0  0  0  0  0
   11.1732   -0.8022    7.4276 H   0  0  0  0  0  0  0  0  0  0  0  0
    9.3209    2.5167    9.4641 H   0  0  0  0  0  0  0  0  0  0  0  0
    4.6780   -3.4395    7.6858 H   0  0  0  0  0  0  0  0  0  0  0  0
    7.7607    0.5153    4.2703 H   0  0  0  0  0  0  0  0  0  0  0  0
    7.6384    0.0879    2.5613 H   0  0  0  0  0  0  0  0  0  0  0  0
    8.9809   -0.5632    3.5865 H   0  0  0  0  0  0  0  0  0  0  0  0
  1  2  1  0  0  0  0
  1 31  1  0  0  0  0
  1 32  1  0  0  0  0
  1 33  1  0  0  0  0
  2  3  1  0  0  0  0
  3  4  2  0  0  0  0
  3  8  1  0  0  0  0
  4  5  1  0  0  0  0
  4 34  1  0  0  0  0
  5  6  2  0  0  0  0
  5 29  1  0  0  0  0
  6  7  1  0  0  0  0
  6  9  1  0  0  0  0
  7  8  2  0  0  0  0
  7 35  1  0  0  0  0
  8 36  1  0  0  0  0
  9 10  1  0  0  0  0
  9 37  1  0  0  0  0
 10 11  1  0  0  0  0
 10 38  1  0  0  0  0
 10 39  1  0  0  0  0
 11 12  1  0  0  0  0
 11 28  1  0  0  0  0
 11 40  1  0  0  0  0
 12 13  1  0  0  0  0
 12 41  1  0  0  0  0
 12 42  1  0  0  0  0
 13 14  1  0  0  0  0
 13 22  1  0  0  0  0
 14 15  2  0  0  0  0
 14 19  1  0  0  0  0
 15 16  1  0  0  0  0
 15 21  1  0  0  0  0
 16 17  2  0  0  0  0
 16 43  1  0  0  0  0
 17 18  1  0  0  0  0
 17 20  1  0  0  0  0
 18 19  2  0  0  0  0
 18 44  1  0  0  0  0
 19 45  1  0  0  0  0
 21 22  2  0  0  0  0
 21 26  1  0  0  0  0
 22 23  1  0  0  0  0
 23 24  2  0  0  0  0
 23 46  1  0  0  0  0
 24 25  1  0  0  0  0
 24 47  1  0  0  0  0
 25 26  2  0  0  0  0
 25 27  1  0  0  0  0
 26 48  1  0  0  0  0
 28 49  1  0  0  0  0
 29 30  1  0  0  0  0
 30 50  1  0  0  0  0
 30 51  1  0  0  0  0
 30 52  1  0  0  0  0
M  END
$$$$
Target_lig_728
 OpenBabel04172506213D

 52 55  0  0  1  0  0  0  0  0999 V2000
    2.6149   -0.3330   -3.3199 C   0  0  0  0  0  0  0  0  0  0  0  0
    2.9099   -1.6080   -3.8839 O   0  0  0  0  0  0  0  0  0  0  0  0
    3.3482   -2.5430   -2.9880 C   0  0  0  0  0  0  0  0  0  0  0  0
    3.1178   -2.5005   -1.6132 C   0  0  0  0  0  0  0  0  0  0  0  0
    3.7562   -3.4041   -0.7492 C   0  0  0  0  0  0  0  0  0  0  0  0
    4.4303   -4.5210   -1.2732 C   0  0  0  0  0  0  0  0  0  0  0  0
    4.5910   -4.5759   -2.6737 C   0  0  0  0  0  0  0  0  0  0  0  0
    4.0855   -3.5910   -3.5207 C   0  0  0  0  0  0  0  0  0  0  0  0
    5.0790   -5.5290   -0.5698 N   0  0  0  0  0  0  0  0  0  0  0  0
    4.9549   -5.7586    0.8565 C   0  0  0  0  0  0  0  0  0  0  0  0
    5.9189   -6.9271    1.2319 C   0  0  3  0  0  0  0  0  0  0  0  0
    5.8714   -7.1263    2.7372 C   0  0  0  0  0  0  0  0  0  0  0  0
    6.9642   -7.7721    3.4688 N   0  0  0  0  0  0  0  0  0  0  0  0
    6.8468   -7.6438    4.8688 C   0  0  0  0  0  0  0  0  0  0  0  0
    7.9476   -6.8580    5.1924 C   0  0  0  0  0  0  0  0  0  0  0  0
    7.8239   -5.9494    6.2542 C   0  0  0  0  0  0  0  0  0  0  0  0
    6.6164   -5.9273    6.9436 C   0  0  0  0  0  0  0  0  0  0  0  0
    5.6262   -6.8737    6.7420 C   0  0  0  0  0  0  0  0  0  0  0  0
    5.7232   -7.7910    5.6932 C   0  0  0  0  0  0  0  0  0  0  0  0
    6.2666   -4.4603    8.1026 Br  0  0  0  0  0  0  0  0  0  0  0  0
    8.9576   -7.2119    4.2724 C   0  0  0  0  0  0  0  0  0  0  0  0
    8.3187   -7.7649    3.1550 C   0  0  0  0  0  0  0  0  0  0  0  0
    9.0410   -8.1120    2.0026 C   0  0  0  0  0  0  0  0  0  0  0  0
   10.4366   -7.9314    2.0293 C   0  0  0  0  0  0  0  0  0  0  0  0
   11.0763   -7.4225    3.1504 C   0  0  0  0  0  0  0  0  0  0  0  0
   10.3552   -7.0346    4.2722 C   0  0  0  0  0  0  0  0  0  0  0  0
   12.9621   -7.2356    3.1764 Br  0  0  0  0  0  0  0  0  0  0  0  0
    5.5159   -8.1315    0.5579 O   0  0  0  0  0  0  0  0  0  0  0  0
    3.6217   -3.2129    0.6073 O   0  0  0  0  0  0  0  0  0  0  0  0
    4.2605   -2.0046    1.0490 C   0  0  0  0  0  0  0  0  0  0  0  0
    2.7061    0.4189   -4.1104 H   0  0  0  0  0  0  0  0  0  0  0  0
    3.3208   -0.0502   -2.5284 H   0  0  0  0  0  0  0  0  0  0  0  0
    1.5887   -0.3215   -2.9466 H   0  0  0  0  0  0  0  0  0  0  0  0
    2.4347   -1.7699   -1.1943 H   0  0  0  0  0  0  0  0  0  0  0  0
    5.1504   -5.3989   -3.1151 H   0  0  0  0  0  0  0  0  0  0  0  0
    4.2762   -3.6495   -4.5900 H   0  0  0  0  0  0  0  0  0  0  0  0
    5.0746   -6.4111   -1.0826 H   0  0  0  0  0  0  0  0  0  0  0  0
    3.9195   -6.0286    1.1011 H   0  0  0  0  0  0  0  0  0  0  0  0
    5.2400   -4.8639    1.4202 H   0  0  0  0  0  0  0  0  0  0  0  0
    6.9238   -6.6743    0.8832 H   0  0  0  0  0  0  0  0  0  0  0  0
    4.9584   -7.6685    3.0094 H   0  0  0  0  0  0  0  0  0  0  0  0
    5.8182   -6.1269    3.1952 H   0  0  0  0  0  0  0  0  0  0  0  0
    8.5969   -5.2075    6.4083 H   0  0  0  0  0  0  0  0  0  0  0  0
    4.7011   -6.8478    7.3255 H   0  0  0  0  0  0  0  0  0  0  0  0
    4.9112   -8.4698    5.4450 H   0  0  0  0  0  0  0  0  0  0  0  0
    8.5563   -8.5185    1.1220 H   0  0  0  0  0  0  0  0  0  0  0  0
   11.0219   -8.2073    1.1493 H   0  0  0  0  0  0  0  0  0  0  0  0
   10.8459   -6.6367    5.1565 H   0  0  0  0  0  0  0  0  0  0  0  0
    4.6357   -8.3876    0.8874 H   0  0  0  0  0  0  0  0  0  0  0  0
    3.8257   -1.1030    0.6007 H   0  0  0  0  0  0  0  0  0  0  0  0
    5.3404   -2.0346    0.8629 H   0  0  0  0  0  0  0  0  0  0  0  0
    4.1134   -1.9281    2.1323 H   0  0  0  0  0  0  0  0  0  0  0  0
  1  2  1  0  0  0  0
  1 31  1  0  0  0  0
  1 32  1  0  0  0  0
  1 33  1  0  0  0  0
  2  3  1  0  0  0  0
  3  4  2  0  0  0  0
  3  8  1  0  0  0  0
  4  5  1  0  0  0  0
  4 29  1  0  0  0  0
  5  6  2  0  0  0  0
  5 34  1  0  0  0  0
  6  7  1  0  0  0  0
  6  9  1  0  0  0  0
  7  8  2  0  0  0  0
  7 35  1  0  0  0  0
  8 36  1  0  0  0  0
  9 10  1  0  0  0  0
  9 37  1  0  0  0  0
 10 11  1  0  0  0  0
 10 38  1  0  0  0  0
 10 39  1  0  0  0  0
 11 12  1  0  0  0  0
 11 28  1  0  0  0  0
 11 40  1  0  0  0  0
 12 13  1  0  0  0  0
 12 41  1  0  0  0  0
 12 42  1  0  0  0  0
 13 14  1  0  0  0  0
 13 22  1  0  0  0  0
 14 15  2  0  0  0  0
 14 19  1  0  0  0  0
 15 16  1  0  0  0  0
 15 21  1  0  0  0  0
 16 17  2  0  0  0  0
 16 43  1  0  0  0  0
 17 18  1  0  0  0  0
 17 20  1  0  0  0  0
 18 19  2  0  0  0  0
 18 44  1  0  0  0  0
 19 45  1  0  0  0  0
 21 22  2  0  0  0  0
 21 26  1  0  0  0  0
 22 23  1  0  0  0  0
 23 24  2  0  0  0  0
 23 46  1  0  0  0  0
 24 25  1  0  0  0  0
 24 47  1  0  0  0  0
 25 26  2  0  0  0  0
 25 27  1  0  0  0  0
 26 48  1  0  0  0  0
 28 49  1  0  0  0  0
 29 30  1  0  0  0  0
 30 50  1  0  0  0  0
 30 51  1  0  0  0  0
 30 52  1  0  0  0  0
M  END
$$$$
Target_lig_729
 OpenBabel04172506213D

 50 53  0  0  1  0  0  0  0  0999 V2000
    2.1007   -1.6776    5.0707 C   0  0  0  0  0  0  0  0  0  0  0  0
    3.5531   -2.0710    4.8583 C   0  0  0  0  0  0  0  0  0  0  0  0
    4.2095   -0.9637    4.2434 O   0  0  0  0  0  0  0  0  0  0  0  0
    5.4089   -1.3042    3.6538 C   0  0  0  0  0  0  0  0  0  0  0  0
    5.8681   -0.4645    2.6619 C   0  0  0  0  0  0  0  0  0  0  0  0
    7.0731   -0.7671    2.0263 C   0  0  0  0  0  0  0  0  0  0  0  0
    7.8062   -1.8951    2.3993 C   0  0  0  0  0  0  0  0  0  0  0  0
    7.2638   -2.6417    3.4556 C   0  0  0  0  0  0  0  0  0  0  0  0
    6.0815   -2.3945    4.0797 N   0  0  0  0  0  0  0  0  0  0  0  0
    9.0636   -2.2053    1.8778 N   0  0  0  0  0  0  0  0  0  0  0  0
    9.4301   -1.8014    0.5166 C   0  0  0  0  0  0  0  0  0  0  0  0
   10.8800   -2.2425    0.1850 C   0  0  3  0  0  0  0  0  0  0  0  0
   11.2520   -1.7860   -1.2333 C   0  0  0  0  0  0  0  0  0  0  0  0
   12.5913   -2.1843   -1.6568 N   0  0  0  0  0  0  0  0  0  0  0  0
   13.7283   -1.4130   -1.4757 C   0  0  0  0  0  0  0  0  0  0  0  0
   13.9197   -0.1811   -0.8266 C   0  0  0  0  0  0  0  0  0  0  0  0
   15.2063    0.3648   -0.7990 C   0  0  0  0  0  0  0  0  0  0  0  0
   16.2677   -0.3003   -1.4007 C   0  0  0  0  0  0  0  0  0  0  0  0
   16.0775   -1.5236   -2.0470 C   0  0  0  0  0  0  0  0  0  0  0  0
   14.7844   -2.0897   -2.0878 C   0  0  0  0  0  0  0  0  0  0  0  0
   14.2538   -3.2798   -2.6734 C   0  0  0  0  0  0  0  0  0  0  0  0
   12.8852   -3.3202   -2.3912 C   0  0  0  0  0  0  0  0  0  0  0  0
   12.0704   -4.3731   -2.8445 C   0  0  0  0  0  0  0  0  0  0  0  0
   12.6591   -5.3839   -3.6116 C   0  0  0  0  0  0  0  0  0  0  0  0
   14.0187   -5.3510   -3.9058 C   0  0  0  0  0  0  0  0  0  0  0  0
   14.8305   -4.3168   -3.4392 C   0  0  0  0  0  0  0  0  0  0  0  0
   14.7800   -6.7199   -4.9673 Br  0  0  0  0  0  0  0  0  0  0  0  0
   17.9968    0.4673   -1.3532 Br  0  0  0  0  0  0  0  0  0  0  0  0
   11.7894   -1.6890    1.1455 O   0  0  0  0  0  0  0  0  0  0  0  0
    1.5229   -2.5134    5.4751 H   0  0  0  0  0  0  0  0  0  0  0  0
    1.6486   -1.3603    4.1245 H   0  0  0  0  0  0  0  0  0  0  0  0
    2.0252   -0.8294    5.7585 H   0  0  0  0  0  0  0  0  0  0  0  0
    3.5819   -2.9568    4.2140 H   0  0  0  0  0  0  0  0  0  0  0  0
    4.0218   -2.2974    5.8248 H   0  0  0  0  0  0  0  0  0  0  0  0
    5.2959    0.4179    2.3866 H   0  0  0  0  0  0  0  0  0  0  0  0
    7.4261   -0.0888    1.2585 H   0  0  0  0  0  0  0  0  0  0  0  0
    7.7937   -3.5052    3.8476 H   0  0  0  0  0  0  0  0  0  0  0  0
    9.3800   -3.1432    2.1194 H   0  0  0  0  0  0  0  0  0  0  0  0
    9.3777   -0.7101    0.4361 H   0  0  0  0  0  0  0  0  0  0  0  0
    8.7326   -2.2426   -0.2043 H   0  0  0  0  0  0  0  0  0  0  0  0
   10.9637   -3.3324    0.2647 H   0  0  0  0  0  0  0  0  0  0  0  0
   11.2044   -0.6936   -1.3142 H   0  0  0  0  0  0  0  0  0  0  0  0
   10.5413   -2.1860   -1.9650 H   0  0  0  0  0  0  0  0  0  0  0  0
   13.1013    0.3435   -0.3455 H   0  0  0  0  0  0  0  0  0  0  0  0
   15.3667    1.3157   -0.2966 H   0  0  0  0  0  0  0  0  0  0  0  0
   16.9095   -2.0370   -2.5183 H   0  0  0  0  0  0  0  0  0  0  0  0
   11.0087   -4.4112   -2.6236 H   0  0  0  0  0  0  0  0  0  0  0  0
   12.0396   -6.1964   -3.9833 H   0  0  0  0  0  0  0  0  0  0  0  0
   15.8908   -4.2935   -3.6705 H   0  0  0  0  0  0  0  0  0  0  0  0
   11.5172   -0.7772    1.3473 H   0  0  0  0  0  0  0  0  0  0  0  0
  1  2  1  0  0  0  0
  1 30  1  0  0  0  0
  1 31  1  0  0  0  0
  1 32  1  0  0  0  0
  2  3  1  0  0  0  0
  2 33  1  0  0  0  0
  2 34  1  0  0  0  0
  3  4  1  0  0  0  0
  4  5  1  0  0  0  0
  4  9  2  0  0  0  0
  5  6  2  0  0  0  0
  5 35  1  0  0  0  0
  6  7  1  0  0  0  0
  6 36  1  0  0  0  0
  7  8  2  0  0  0  0
  7 10  1  0  0  0  0
  8  9  1  0  0  0  0
  8 37  1  0  0  0  0
 10 11  1  0  0  0  0
 10 38  1  0  0  0  0
 11 12  1  0  0  0  0
 11 39  1  0  0  0  0
 11 40  1  0  0  0  0
 12 13  1  0  0  0  0
 12 29  1  0  0  0  0
 12 41  1  0  0  0  0
 13 14  1  0  0  0  0
 13 42  1  0  0  0  0
 13 43  1  0  0  0  0
 14 15  1  0  0  0  0
 14 22  1  0  0  0  0
 15 16  1  0  0  0  0
 15 20  2  0  0  0  0
 16 17  2  0  0  0  0
 16 44  1  0  0  0  0
 17 18  1  0  0  0  0
 17 45  1  0  0  0  0
 18 19  2  0  0  0  0
 18 28  1  0  0  0  0
 19 20  1  0  0  0  0
 19 46  1  0  0  0  0
 20 21  1  0  0  0  0
 21 22  1  0  0  0  0
 21 26  2  0  0  0  0
 22 23  2  0  0  0  0
 23 24  1  0  0  0  0
 23 47  1  0  0  0  0
 24 25  2  0  0  0  0
 24 48  1  0  0  0  0
 25 26  1  0  0  0  0
 25 27  1  0  0  0  0
 26 49  1  0  0  0  0
 29 50  1  0  0  0  0
M  END
$$$$
Target_lig_730
 OpenBabel04172506213D

 54 57  0  0  1  0  0  0  0  0999 V2000
   13.5572    4.6521    1.5213 C   0  0  0  0  0  0  0  0  0  0  0  0
   13.2226    3.7993    0.3095 C   0  0  0  0  0  0  0  0  0  0  0  0
   11.9027    4.2433   -0.3047 C   0  0  0  0  0  0  0  0  0  0  0  0
   11.5971    3.4241   -1.4350 O   0  0  0  0  0  0  0  0  0  0  0  0
   10.4505    3.7682   -2.1020 C   0  0  0  0  0  0  0  0  0  0  0  0
    9.5653    4.7701   -1.7067 C   0  0  0  0  0  0  0  0  0  0  0  0
    8.4315    5.0548   -2.4620 C   0  0  0  0  0  0  0  0  0  0  0  0
    8.1683    4.3786   -3.6465 C   0  0  0  0  0  0  0  0  0  0  0  0
    9.0222    3.3306   -4.0041 C   0  0  0  0  0  0  0  0  0  0  0  0
   10.1695    3.0304   -3.2444 C   0  0  0  0  0  0  0  0  0  0  0  0
    7.0070    4.6014   -4.3992 N   0  0  0  0  0  0  0  0  0  0  0  0
    6.5554    5.9952   -4.5257 C   0  0  0  0  0  0  0  0  0  0  0  0
    7.2930    6.7278   -5.6719 C   0  0  3  0  0  0  0  0  0  0  0  0
    7.0175    5.9403   -6.9450 C   0  0  0  0  0  0  0  0  0  0  0  0
    7.4821    6.4898   -8.2175 N   0  0  0  0  0  0  0  0  0  0  0  0
    6.5018    6.8626   -9.1349 C   0  0  0  0  0  0  0  0  0  0  0  0
    5.3407    7.6212   -8.9423 C   0  0  0  0  0  0  0  0  0  0  0  0
    4.2200    7.2234   -9.6690 C   0  0  0  0  0  0  0  0  0  0  0  0
    4.3092    6.1862  -10.5960 C   0  0  0  0  0  0  0  0  0  0  0  0
    5.5404    5.6193  -10.9486 C   0  0  0  0  0  0  0  0  0  0  0  0
    6.6709    5.9671  -10.1878 C   0  0  0  0  0  0  0  0  0  0  0  0
    8.0412    5.5605  -10.1624 C   0  0  0  0  0  0  0  0  0  0  0  0
    8.5391    5.9010   -8.9003 C   0  0  0  0  0  0  0  0  0  0  0  0
    9.8051    5.4888   -8.4541 C   0  0  0  0  0  0  0  0  0  0  0  0
   10.6048    4.7664   -9.3457 C   0  0  0  0  0  0  0  0  0  0  0  0
   10.1469    4.4628  -10.6252 C   0  0  0  0  0  0  0  0  0  0  0  0
    8.8662    4.8346  -11.0450 C   0  0  0  0  0  0  0  0  0  0  0  0
   11.2599    3.4908  -11.8086 Br  0  0  0  0  0  0  0  0  0  0  0  0
    2.7152    5.4275  -11.2800 Br  0  0  0  0  0  0  0  0  0  0  0  0
    6.8046    8.0734   -5.7544 O   0  0  0  0  0  0  0  0  0  0  0  0
   14.5062    4.3365    1.9621 H   0  0  0  0  0  0  0  0  0  0  0  0
   12.7783    4.5650    2.2870 H   0  0  0  0  0  0  0  0  0  0  0  0
   13.6417    5.7080    1.2443 H   0  0  0  0  0  0  0  0  0  0  0  0
   13.1604    2.7431    0.5954 H   0  0  0  0  0  0  0  0  0  0  0  0
   14.0207    3.8705   -0.4371 H   0  0  0  0  0  0  0  0  0  0  0  0
   11.9954    5.2907   -0.6175 H   0  0  0  0  0  0  0  0  0  0  0  0
   11.1111    4.1441    0.4494 H   0  0  0  0  0  0  0  0  0  0  0  0
    9.7181    5.3508   -0.8090 H   0  0  0  0  0  0  0  0  0  0  0  0
    7.7633    5.8216   -2.0843 H   0  0  0  0  0  0  0  0  0  0  0  0
    8.8127    2.7478   -4.8980 H   0  0  0  0  0  0  0  0  0  0  0  0
   10.8283    2.2318   -3.5650 H   0  0  0  0  0  0  0  0  0  0  0  0
    6.2699    3.9910   -4.0438 H   0  0  0  0  0  0  0  0  0  0  0  0
    6.6127    6.5765   -3.6009 H   0  0  0  0  0  0  0  0  0  0  0  0
    5.4818    5.9745   -4.7573 H   0  0  0  0  0  0  0  0  0  0  0  0
    8.3700    6.7829   -5.4816 H   0  0  0  0  0  0  0  0  0  0  0  0
    5.9303    5.8128   -7.0439 H   0  0  0  0  0  0  0  0  0  0  0  0
    7.4256    4.9243   -6.8783 H   0  0  0  0  0  0  0  0  0  0  0  0
    5.2669    8.3601   -8.1522 H   0  0  0  0  0  0  0  0  0  0  0  0
    3.2586    7.6759   -9.4355 H   0  0  0  0  0  0  0  0  0  0  0  0
    5.6054    4.8190  -11.6778 H   0  0  0  0  0  0  0  0  0  0  0  0
   10.1450    5.6934   -7.4431 H   0  0  0  0  0  0  0  0  0  0  0  0
   11.5847    4.4262   -9.0186 H   0  0  0  0  0  0  0  0  0  0  0  0
    8.5032    4.5711  -12.0333 H   0  0  0  0  0  0  0  0  0  0  0  0
    5.8497    8.0462   -5.9336 H   0  0  0  0  0  0  0  0  0  0  0  0
  1  2  1  0  0  0  0
  1 31  1  0  0  0  0
  1 32  1  0  0  0  0
  1 33  1  0  0  0  0
  2  3  1  0  0  0  0
  2 34  1  0  0  0  0
  2 35  1  0  0  0  0
  3  4  1  0  0  0  0
  3 36  1  0  0  0  0
  3 37  1  0  0  0  0
  4  5  1  0  0  0  0
  5  6  1  0  0  0  0
  5 10  2  0  0  0  0
  6  7  2  0  0  0  0
  6 38  1  0  0  0  0
  7  8  1  0  0  0  0
  7 39  1  0  0  0  0
  8  9  2  0  0  0  0
  8 11  1  0  0  0  0
  9 10  1  0  0  0  0
  9 40  1  0  0  0  0
 10 41  1  0  0  0  0
 11 12  1  0  0  0  0
 11 42  1  0  0  0  0
 12 13  1  0  0  0  0
 12 43  1  0  0  0  0
 12 44  1  0  0  0  0
 13 14  1  0  0  0  0
 13 30  1  0  0  0  0
 13 45  1  0  0  0  0
 14 15  1  0  0  0  0
 14 46  1  0  0  0  0
 14 47  1  0  0  0  0
 15 16  1  0  0  0  0
 15 23  1  0  0  0  0
 16 17  1  0  0  0  0
 16 21  2  0  0  0  0
 17 18  2  0  0  0  0
 17 48  1  0  0  0  0
 18 19  1  0  0  0  0
 18 49  1  0  0  0  0
 19 20  2  0  0  0  0
 19 29  1  0  0  0  0
 20 21  1  0  0  0  0
 20 50  1  0  0  0  0
 21 22  1  0  0  0  0
 22 23  1  0  0  0  0
 22 27  2  0  0  0  0
 23 24  2  0  0  0  0
 24 25  1  0  0  0  0
 24 51  1  0  0  0  0
 25 26  2  0  0  0  0
 25 52  1  0  0  0  0
 26 27  1  0  0  0  0
 26 28  1  0  0  0  0
 27 53  1  0  0  0  0
 30 54  1  0  0  0  0
M  END
$$$$
Target_lig_731
 OpenBabel04172506213D

 57 61  0  0  1  0  0  0  0  0999 V2000
    2.6626    1.3138   -0.2326 O   0  0  0  0  0  0  0  0  0  0  0  0
    2.4449   -0.0727    0.0589 C   0  0  3  0  0  0  0  0  0  0  0  0
    0.9415   -0.3655    0.1722 C   0  0  0  0  0  0  0  0  0  0  0  0
    0.3035    0.3753    1.2502 N   0  0  0  0  0  0  0  0  0  0  0  0
   -0.3055    1.6064    1.0936 C   0  0  0  0  0  0  0  0  0  0  0  0
   -0.4579    2.4284   -0.0374 C   0  0  0  0  0  0  0  0  0  0  0  0
   -1.1410    3.6380    0.1103 C   0  0  0  0  0  0  0  0  0  0  0  0
   -1.6490    4.0147    1.3478 C   0  0  0  0  0  0  0  0  0  0  0  0
   -1.4797    3.2050    2.4740 C   0  0  0  0  0  0  0  0  0  0  0  0
   -0.7926    1.9795    2.3468 C   0  0  0  0  0  0  0  0  0  0  0  0
   -0.4372    0.9484    3.2730 C   0  0  0  0  0  0  0  0  0  0  0  0
    0.2342   -0.0488    2.5626 C   0  0  0  0  0  0  0  0  0  0  0  0
    0.7065   -1.2166    3.1865 C   0  0  0  0  0  0  0  0  0  0  0  0
    0.5063   -1.3539    4.5635 C   0  0  0  0  0  0  0  0  0  0  0  0
   -0.1459   -0.3612    5.2870 C   0  0  0  0  0  0  0  0  0  0  0  0
   -0.6283    0.7902    4.6599 C   0  0  0  0  0  0  0  0  0  0  0  0
   -0.3783   -0.5665    7.1534 Br  0  0  0  0  0  0  0  0  0  0  0  0
   -2.5823    5.6518    1.5149 Br  0  0  0  0  0  0  0  0  0  0  0  0
    3.0014   -0.9145   -1.1003 C   0  0  0  0  0  0  0  0  0  0  0  0
    4.4509   -0.7585   -1.2737 N   0  0  0  0  0  0  0  0  0  0  0  0
    5.0241   -1.5376   -2.2902 C   0  0  0  0  0  0  0  0  0  0  0  0
    4.3441   -1.8548   -3.4662 C   0  0  0  0  0  0  0  0  0  0  0  0
    4.9169   -2.6725   -4.4428 C   0  0  0  0  0  0  0  0  0  0  0  0
    6.2120   -3.1774   -4.3145 C   0  0  0  0  0  0  0  0  0  0  0  0
    6.9282   -2.7611   -3.1831 C   0  0  0  0  0  0  0  0  0  0  0  0
    6.3546   -1.9416   -2.1971 C   0  0  0  0  0  0  0  0  0  0  0  0
    6.7542   -4.0284   -5.2508 N   0  0  0  0  0  0  0  0  0  0  0  0
    6.3338   -4.0592   -6.6601 C   0  0  0  0  0  0  0  0  0  0  0  0
    5.8553   -5.4678   -7.0364 C   0  0  0  0  0  0  0  0  0  0  0  0
    6.8614   -6.4555   -6.7548 O   0  0  0  0  0  0  0  0  0  0  0  0
    7.1843   -6.4491   -5.3540 C   0  0  0  0  0  0  0  0  0  0  0  0
    7.7142   -5.0807   -4.8883 C   0  0  0  0  0  0  0  0  0  0  0  0
    2.4376    1.8269    0.5638 H   0  0  0  0  0  0  0  0  0  0  0  0
    2.9714   -0.3106    0.9899 H   0  0  0  0  0  0  0  0  0  0  0  0
    0.7563   -1.4319    0.3481 H   0  0  0  0  0  0  0  0  0  0  0  0
    0.4192   -0.1062   -0.7554 H   0  0  0  0  0  0  0  0  0  0  0  0
   -0.0514    2.1497   -1.0062 H   0  0  0  0  0  0  0  0  0  0  0  0
   -1.2681    4.2817   -0.7569 H   0  0  0  0  0  0  0  0  0  0  0  0
   -1.8698    3.5100    3.4397 H   0  0  0  0  0  0  0  0  0  0  0  0
    1.2153   -1.9981    2.6312 H   0  0  0  0  0  0  0  0  0  0  0  0
    0.8708   -2.2469    5.0587 H   0  0  0  0  0  0  0  0  0  0  0  0
   -1.1389    1.5608    5.2298 H   0  0  0  0  0  0  0  0  0  0  0  0
    2.4868   -0.5846   -2.0094 H   0  0  0  0  0  0  0  0  0  0  0  0
    2.7717   -1.9737   -0.9253 H   0  0  0  0  0  0  0  0  0  0  0  0
    4.9742   -0.8127   -0.4047 H   0  0  0  0  0  0  0  0  0  0  0  0
    3.3432   -1.4854   -3.6584 H   0  0  0  0  0  0  0  0  0  0  0  0
    4.2931   -2.9301   -5.2918 H   0  0  0  0  0  0  0  0  0  0  0  0
    7.9684   -3.0492   -3.0582 H   0  0  0  0  0  0  0  0  0  0  0  0
    6.9645   -1.6403   -1.3497 H   0  0  0  0  0  0  0  0  0  0  0  0
    7.2070   -3.7993   -7.2687 H   0  0  0  0  0  0  0  0  0  0  0  0
    5.5591   -3.3262   -6.9049 H   0  0  0  0  0  0  0  0  0  0  0  0
    5.6423   -5.5103   -8.1092 H   0  0  0  0  0  0  0  0  0  0  0  0
    4.9354   -5.7323   -6.5015 H   0  0  0  0  0  0  0  0  0  0  0  0
    7.9463   -7.2169   -5.1867 H   0  0  0  0  0  0  0  0  0  0  0  0
    6.2916   -6.7360   -4.7848 H   0  0  0  0  0  0  0  0  0  0  0  0
    8.6647   -4.8620   -5.3881 H   0  0  0  0  0  0  0  0  0  0  0  0
    7.9034   -5.1387   -3.8111 H   0  0  0  0  0  0  0  0  0  0  0  0
  1  2  1  0  0  0  0
  1 33  1  0  0  0  0
  2  3  1  0  0  0  0
  2 19  1  0  0  0  0
  2 34  1  0  0  0  0
  3  4  1  0  0  0  0
  3 35  1  0  0  0  0
  3 36  1  0  0  0  0
  4  5  1  0  0  0  0
  4 12  1  0  0  0  0
  5  6  1  0  0  0  0
  5 10  2  0  0  0  0
  6  7  2  0  0  0  0
  6 37  1  0  0  0  0
  7  8  1  0  0  0  0
  7 38  1  0  0  0  0
  8  9  2  0  0  0  0
  8 18  1  0  0  0  0
  9 10  1  0  0  0  0
  9 39  1  0  0  0  0
 10 11  1  0  0  0  0
 11 12  1  0  0  0  0
 11 16  2  0  0  0  0
 12 13  2  0  0  0  0
 13 14  1  0  0  0  0
 13 40  1  0  0  0  0
 14 15  2  0  0  0  0
 14 41  1  0  0  0  0
 15 16  1  0  0  0  0
 15 17  1  0  0  0  0
 16 42  1  0  0  0  0
 19 20  1  0  0  0  0
 19 43  1  0  0  0  0
 19 44  1  0  0  0  0
 20 21  1  0  0  0  0
 20 45  1  0  0  0  0
 21 22  1  0  0  0  0
 21 26  2  0  0  0  0
 22 23  2  0  0  0  0
 22 46  1  0  0  0  0
 23 24  1  0  0  0  0
 23 47  1  0  0  0  0
 24 25  2  0  0  0  0
 24 27  1  0  0  0  0
 25 26  1  0  0  0  0
 25 48  1  0  0  0  0
 26 49  1  0  0  0  0
 27 28  1  0  0  0  0
 27 32  1  0  0  0  0
 28 29  1  0  0  0  0
 28 50  1  0  0  0  0
 28 51  1  0  0  0  0
 29 30  1  0  0  0  0
 29 52  1  0  0  0  0
 29 53  1  0  0  0  0
 30 31  1  0  0  0  0
 31 32  1  0  0  0  0
 31 54  1  0  0  0  0
 31 55  1  0  0  0  0
 32 56  1  0  0  0  0
 32 57  1  0  0  0  0
M  END
$$$$
Target_lig_733
 OpenBabel04172506213D

 51 54  0  0  1  0  0  0  0  0999 V2000
    0.9874    0.4454   -0.9311 C   0  0  0  0  0  0  0  0  0  0  0  0
    2.2725    0.0670   -0.2179 C   0  0  0  0  0  0  0  0  0  0  0  0
    3.3527    0.9156   -0.6190 O   0  0  0  0  0  0  0  0  0  0  0  0
    4.5810    0.6025   -0.0796 C   0  0  0  0  0  0  0  0  0  0  0  0
    4.7719   -0.3869    0.8883 C   0  0  0  0  0  0  0  0  0  0  0  0
    6.0466   -0.6667    1.3921 C   0  0  0  0  0  0  0  0  0  0  0  0
    7.1728    0.0306    0.9598 C   0  0  0  0  0  0  0  0  0  0  0  0
    6.9899    1.0114   -0.0224 C   0  0  0  0  0  0  0  0  0  0  0  0
    5.7080    1.3097   -0.5226 C   0  0  0  0  0  0  0  0  0  0  0  0
    5.5743    2.5756   -1.6961 Cl  0  0  0  0  0  0  0  0  0  0  0  0
    8.4174   -0.3770    1.4742 N   0  0  0  0  0  0  0  0  0  0  0  0
    9.6155    0.3707    1.0973 C   0  0  0  0  0  0  0  0  0  0  0  0
   10.8935   -0.1501    1.7833 C   0  0  3  0  0  0  0  0  0  0  0  0
   11.2515   -1.5992    1.3976 C   0  0  0  0  0  0  0  0  0  0  0  0
   12.4527   -2.0693    2.0942 N   0  0  0  0  0  0  0  0  0  0  0  0
   13.7399   -2.0155    1.5809 C   0  0  0  0  0  0  0  0  0  0  0  0
   14.2230   -1.7239    0.2934 C   0  0  0  0  0  0  0  0  0  0  0  0
   15.6077   -1.6235    0.1129 C   0  0  0  0  0  0  0  0  0  0  0  0
   16.4775   -1.8054    1.1819 C   0  0  0  0  0  0  0  0  0  0  0  0
   15.9990   -2.1547    2.4464 C   0  0  0  0  0  0  0  0  0  0  0  0
   14.6060   -2.2794    2.6436 C   0  0  0  0  0  0  0  0  0  0  0  0
   13.8118   -2.6705    3.7631 C   0  0  0  0  0  0  0  0  0  0  0  0
   12.4691   -2.5571    3.3893 C   0  0  0  0  0  0  0  0  0  0  0  0
   11.4268   -2.8839    4.2739 C   0  0  0  0  0  0  0  0  0  0  0  0
   11.7648   -3.3518    5.5491 C   0  0  0  0  0  0  0  0  0  0  0  0
   13.0957   -3.4694    5.9326 C   0  0  0  0  0  0  0  0  0  0  0  0
   14.1286   -3.1247    5.0609 C   0  0  0  0  0  0  0  0  0  0  0  0
   13.5195   -4.1220    7.6582 Br  0  0  0  0  0  0  0  0  0  0  0  0
   18.3373   -1.5679    0.9294 Br  0  0  0  0  0  0  0  0  0  0  0  0
   11.9555    0.7516    1.4329 O   0  0  0  0  0  0  0  0  0  0  0  0
    0.1952   -0.2615   -0.6598 H   0  0  0  0  0  0  0  0  0  0  0  0
    1.1158    0.4302   -2.0165 H   0  0  0  0  0  0  0  0  0  0  0  0
    0.6649    1.4510   -0.6476 H   0  0  0  0  0  0  0  0  0  0  0  0
    2.5063   -0.9733   -0.4712 H   0  0  0  0  0  0  0  0  0  0  0  0
    2.1049    0.1700    0.8598 H   0  0  0  0  0  0  0  0  0  0  0  0
    3.9515   -0.9771    1.2787 H   0  0  0  0  0  0  0  0  0  0  0  0
    6.1446   -1.4653    2.1228 H   0  0  0  0  0  0  0  0  0  0  0  0
    7.8310    1.5813   -0.4068 H   0  0  0  0  0  0  0  0  0  0  0  0
    8.3402   -0.5382    2.4768 H   0  0  0  0  0  0  0  0  0  0  0  0
    9.4918    1.4287    1.3696 H   0  0  0  0  0  0  0  0  0  0  0  0
    9.7592    0.3330    0.0121 H   0  0  0  0  0  0  0  0  0  0  0  0
   10.7706   -0.0804    2.8716 H   0  0  0  0  0  0  0  0  0  0  0  0
   11.4386   -1.6838    0.3230 H   0  0  0  0  0  0  0  0  0  0  0  0
   10.4427   -2.2953    1.6442 H   0  0  0  0  0  0  0  0  0  0  0  0
   13.5562   -1.5733   -0.5486 H   0  0  0  0  0  0  0  0  0  0  0  0
   15.9977   -1.3860   -0.8742 H   0  0  0  0  0  0  0  0  0  0  0  0
   16.6811   -2.3204    3.2733 H   0  0  0  0  0  0  0  0  0  0  0  0
   10.3845   -2.7977    3.9852 H   0  0  0  0  0  0  0  0  0  0  0  0
   10.9710   -3.6259    6.2399 H   0  0  0  0  0  0  0  0  0  0  0  0
   15.1679   -3.2233    5.3608 H   0  0  0  0  0  0  0  0  0  0  0  0
   12.0663    0.7451    0.4663 H   0  0  0  0  0  0  0  0  0  0  0  0
  1  2  1  0  0  0  0
  1 31  1  0  0  0  0
  1 32  1  0  0  0  0
  1 33  1  0  0  0  0
  2  3  1  0  0  0  0
  2 34  1  0  0  0  0
  2 35  1  0  0  0  0
  3  4  1  0  0  0  0
  4  5  1  0  0  0  0
  4  9  2  0  0  0  0
  5  6  2  0  0  0  0
  5 36  1  0  0  0  0
  6  7  1  0  0  0  0
  6 37  1  0  0  0  0
  7  8  2  0  0  0  0
  7 11  1  0  0  0  0
  8  9  1  0  0  0  0
  8 38  1  0  0  0  0
  9 10  1  0  0  0  0
 11 12  1  0  0  0  0
 11 39  1  0  0  0  0
 12 13  1  0  0  0  0
 12 40  1  0  0  0  0
 12 41  1  0  0  0  0
 13 14  1  0  0  0  0
 13 30  1  0  0  0  0
 13 42  1  0  0  0  0
 14 15  1  0  0  0  0
 14 43  1  0  0  0  0
 14 44  1  0  0  0  0
 15 16  1  0  0  0  0
 15 23  1  0  0  0  0
 16 17  1  0  0  0  0
 16 21  2  0  0  0  0
 17 18  2  0  0  0  0
 17 45  1  0  0  0  0
 18 19  1  0  0  0  0
 18 46  1  0  0  0  0
 19 20  2  0  0  0  0
 19 29  1  0  0  0  0
 20 21  1  0  0  0  0
 20 47  1  0  0  0  0
 21 22  1  0  0  0  0
 22 23  1  0  0  0  0
 22 27  2  0  0  0  0
 23 24  2  0  0  0  0
 24 25  1  0  0  0  0
 24 48  1  0  0  0  0
 25 26  2  0  0  0  0
 25 49  1  0  0  0  0
 26 27  1  0  0  0  0
 26 28  1  0  0  0  0
 27 50  1  0  0  0  0
 30 51  1  0  0  0  0
M  END
$$$$
Target_lig_734
 OpenBabel04172506213D

 44 47  0  0  1  0  0  0  0  0999 V2000
   -3.9314   -6.3933    0.7840 C   0  0  0  0  0  0  0  0  0  0  0  0
   -3.9383   -5.7492   -0.4499 C   0  0  0  0  0  0  0  0  0  0  0  0
   -4.1986   -4.3734   -0.5201 C   0  0  0  0  0  0  0  0  0  0  0  0
   -4.4217   -3.6073    0.6369 C   0  0  0  0  0  0  0  0  0  0  0  0
   -4.4299   -4.2915    1.8616 C   0  0  0  0  0  0  0  0  0  0  0  0
   -4.1835   -5.6654    1.9404 C   0  0  0  0  0  0  0  0  0  0  0  0
   -4.7710   -2.2579    0.6262 N   0  0  0  0  0  0  0  0  0  0  0  0
   -4.7153   -1.5076   -0.6169 C   0  0  0  0  0  0  0  0  0  0  0  0
   -5.0860   -0.0138   -0.4248 C   0  0  3  0  0  0  0  0  0  0  0  0
   -5.0192    0.6043   -1.8149 C   0  0  0  0  0  0  0  0  0  0  0  0
   -5.4049    2.0078   -1.9779 N   0  0  0  0  0  0  0  0  0  0  0  0
   -6.5542    2.2681   -2.7311 C   0  0  0  0  0  0  0  0  0  0  0  0
   -6.0845    2.9842   -3.8255 C   0  0  0  0  0  0  0  0  0  0  0  0
   -6.8059    2.8906   -5.0279 C   0  0  0  0  0  0  0  0  0  0  0  0
   -7.9633    2.1056   -5.0480 C   0  0  0  0  0  0  0  0  0  0  0  0
   -8.5099    1.5767   -3.8741 C   0  0  0  0  0  0  0  0  0  0  0  0
   -7.8151    1.6762   -2.6707 C   0  0  0  0  0  0  0  0  0  0  0  0
   -8.7340    1.6368   -6.7110 Br  0  0  0  0  0  0  0  0  0  0  0  0
   -4.8877    3.6346   -3.4050 C   0  0  0  0  0  0  0  0  0  0  0  0
   -4.4658    2.9949   -2.2332 C   0  0  0  0  0  0  0  0  0  0  0  0
   -3.2312    3.2828   -1.6293 C   0  0  0  0  0  0  0  0  0  0  0  0
   -2.4460    4.2903   -2.2025 C   0  0  0  0  0  0  0  0  0  0  0  0
   -2.8778    4.9719   -3.3385 C   0  0  0  0  0  0  0  0  0  0  0  0
   -4.0816    4.6461   -3.9632 C   0  0  0  0  0  0  0  0  0  0  0  0
   -1.8013    6.3442   -4.0730 Br  0  0  0  0  0  0  0  0  0  0  0  0
   -6.3965    0.1309    0.1316 O   0  0  0  0  0  0  0  0  0  0  0  0
   -3.7395   -7.4624    0.8404 H   0  0  0  0  0  0  0  0  0  0  0  0
   -3.7530   -6.3109   -1.3593 H   0  0  0  0  0  0  0  0  0  0  0  0
   -4.2083   -3.9216   -1.5054 H   0  0  0  0  0  0  0  0  0  0  0  0
   -4.6497   -3.7471    2.7784 H   0  0  0  0  0  0  0  0  0  0  0  0
   -4.2006   -6.1632    2.9038 H   0  0  0  0  0  0  0  0  0  0  0  0
   -4.4348   -1.7587    1.4476 H   0  0  0  0  0  0  0  0  0  0  0  0
   -5.4370   -1.9524   -1.3091 H   0  0  0  0  0  0  0  0  0  0  0  0
   -3.7145   -1.5778   -1.0623 H   0  0  0  0  0  0  0  0  0  0  0  0
   -4.3853    0.4781    0.2555 H   0  0  0  0  0  0  0  0  0  0  0  0
   -5.6752    0.0301   -2.4821 H   0  0  0  0  0  0  0  0  0  0  0  0
   -4.0088    0.5001   -2.2332 H   0  0  0  0  0  0  0  0  0  0  0  0
   -6.3905    3.3085   -5.9416 H   0  0  0  0  0  0  0  0  0  0  0  0
   -9.4394    1.0123   -3.9049 H   0  0  0  0  0  0  0  0  0  0  0  0
   -8.1833    1.1936   -1.7661 H   0  0  0  0  0  0  0  0  0  0  0  0
   -2.8859    2.7412   -0.7544 H   0  0  0  0  0  0  0  0  0  0  0  0
   -1.4842    4.5300   -1.7553 H   0  0  0  0  0  0  0  0  0  0  0  0
   -4.4104    5.1664   -4.8569 H   0  0  0  0  0  0  0  0  0  0  0  0
   -6.9563   -0.5914   -0.2083 H   0  0  0  0  0  0  0  0  0  0  0  0
  1  2  2  0  0  0  0
  1  6  1  0  0  0  0
  1 27  1  0  0  0  0
  2  3  1  0  0  0  0
  2 28  1  0  0  0  0
  3  4  2  0  0  0  0
  3 29  1  0  0  0  0
  4  5  1  0  0  0  0
  4  7  1  0  0  0  0
  5  6  2  0  0  0  0
  5 30  1  0  0  0  0
  6 31  1  0  0  0  0
  7  8  1  0  0  0  0
  7 32  1  0  0  0  0
  8  9  1  0  0  0  0
  8 33  1  0  0  0  0
  8 34  1  0  0  0  0
  9 10  1  0  0  0  0
  9 26  1  0  0  0  0
  9 35  1  0  0  0  0
 10 11  1  0  0  0  0
 10 36  1  0  0  0  0
 10 37  1  0  0  0  0
 11 12  1  0  0  0  0
 11 20  1  0  0  0  0
 12 13  2  0  0  0  0
 12 17  1  0  0  0  0
 13 14  1  0  0  0  0
 13 19  1  0  0  0  0
 14 15  2  0  0  0  0
 14 38  1  0  0  0  0
 15 16  1  0  0  0  0
 15 18  1  0  0  0  0
 16 17  2  0  0  0  0
 16 39  1  0  0  0  0
 17 40  1  0  0  0  0
 19 20  2  0  0  0  0
 19 24  1  0  0  0  0
 20 21  1  0  0  0  0
 21 22  2  0  0  0  0
 21 41  1  0  0  0  0
 22 23  1  0  0  0  0
 22 42  1  0  0  0  0
 23 24  2  0  0  0  0
 23 25  1  0  0  0  0
 24 43  1  0  0  0  0
 26 44  1  0  0  0  0
M  END
$$$$
Target_lig_737
 OpenBabel04172506213D

 51 54  0  0  1  0  0  0  0  0999 V2000
    5.9348    9.7875    0.2757 C   0  0  0  0  0  0  0  0  0  0  0  0
    6.5899    8.4802   -0.1291 C   0  0  0  0  0  0  0  0  0  0  0  0
    6.2757    7.4925    0.8519 O   0  0  0  0  0  0  0  0  0  0  0  0
    6.8416    6.2631    0.6633 C   0  0  0  0  0  0  0  0  0  0  0  0
    7.6668    5.9034   -0.3941 C   0  0  0  0  0  0  0  0  0  0  0  0
    8.2022    4.6155   -0.4690 C   0  0  0  0  0  0  0  0  0  0  0  0
    7.8876    3.6392    0.4763 C   0  0  0  0  0  0  0  0  0  0  0  0
    7.0667    4.0084    1.5445 C   0  0  0  0  0  0  0  0  0  0  0  0
    6.5492    5.3075    1.6370 C   0  0  0  0  0  0  0  0  0  0  0  0
    8.4297    2.3589    0.4638 N   0  0  0  0  0  0  0  0  0  0  0  0
    9.3684    1.9255   -0.5625 C   0  0  0  0  0  0  0  0  0  0  0  0
   10.8289    2.3060   -0.1976 C   0  0  3  0  0  0  0  0  0  0  0  0
   11.1593    1.6284    1.1280 C   0  0  0  0  0  0  0  0  0  0  0  0
   12.5311    1.7029    1.6370 N   0  0  0  0  0  0  0  0  0  0  0  0
   13.2406    0.5038    1.6940 C   0  0  0  0  0  0  0  0  0  0  0  0
   13.3350    0.2403    3.0584 C   0  0  0  0  0  0  0  0  0  0  0  0
   13.3987   -1.1009    3.4739 C   0  0  0  0  0  0  0  0  0  0  0  0
   13.3944   -2.0975    2.4919 C   0  0  0  0  0  0  0  0  0  0  0  0
   13.5106   -1.7877    1.1361 C   0  0  0  0  0  0  0  0  0  0  0  0
   13.4618   -0.4617    0.7049 C   0  0  0  0  0  0  0  0  0  0  0  0
   13.1037   -3.8962    3.0058 Br  0  0  0  0  0  0  0  0  0  0  0  0
   13.3067    1.5053    3.7175 C   0  0  0  0  0  0  0  0  0  0  0  0
   12.8172    2.4295    2.7836 C   0  0  0  0  0  0  0  0  0  0  0  0
   12.5372    3.7648    3.1346 C   0  0  0  0  0  0  0  0  0  0  0  0
   12.8181    4.1671    4.4451 C   0  0  0  0  0  0  0  0  0  0  0  0
   13.3430    3.2673    5.3710 C   0  0  0  0  0  0  0  0  0  0  0  0
   13.5757    1.9331    5.0322 C   0  0  0  0  0  0  0  0  0  0  0  0
   13.7255    3.8499    7.1307 Br  0  0  0  0  0  0  0  0  0  0  0  0
   11.6957    1.8580   -1.2557 O   0  0  0  0  0  0  0  0  0  0  0  0
    6.1236   10.5603   -0.4739 H   0  0  0  0  0  0  0  0  0  0  0  0
    6.3242   10.1279    1.2406 H   0  0  0  0  0  0  0  0  0  0  0  0
    4.8538    9.6595    0.3925 H   0  0  0  0  0  0  0  0  0  0  0  0
    7.6737    8.6342   -0.1817 H   0  0  0  0  0  0  0  0  0  0  0  0
    6.2024    8.1749   -1.1072 H   0  0  0  0  0  0  0  0  0  0  0  0
    7.9257    6.5974   -1.1849 H   0  0  0  0  0  0  0  0  0  0  0  0
    8.8533    4.3997   -1.3093 H   0  0  0  0  0  0  0  0  0  0  0  0
    6.8395    3.2995    2.3378 H   0  0  0  0  0  0  0  0  0  0  0  0
    5.9078    5.5796    2.4768 H   0  0  0  0  0  0  0  0  0  0  0  0
    7.7653    1.6508    0.7726 H   0  0  0  0  0  0  0  0  0  0  0  0
    9.0984    2.2763   -1.5649 H   0  0  0  0  0  0  0  0  0  0  0  0
    9.3019    0.8306   -0.6409 H   0  0  0  0  0  0  0  0  0  0  0  0
   10.9531    3.3858   -0.1169 H   0  0  0  0  0  0  0  0  0  0  0  0
   10.9301    0.5581    1.0342 H   0  0  0  0  0  0  0  0  0  0  0  0
   10.5089    2.0033    1.9261 H   0  0  0  0  0  0  0  0  0  0  0  0
   13.3217   -1.3434    4.5284 H   0  0  0  0  0  0  0  0  0  0  0  0
   13.5592   -2.5797    0.3932 H   0  0  0  0  0  0  0  0  0  0  0  0
   13.4627   -0.2093   -0.3496 H   0  0  0  0  0  0  0  0  0  0  0  0
   12.0888    4.4531    2.4245 H   0  0  0  0  0  0  0  0  0  0  0  0
   12.6054    5.1918    4.7401 H   0  0  0  0  0  0  0  0  0  0  0  0
   13.9751    1.2310    5.7567 H   0  0  0  0  0  0  0  0  0  0  0  0
   11.6114    0.8927   -1.3396 H   0  0  0  0  0  0  0  0  0  0  0  0
  1  2  1  0  0  0  0
  1 30  1  0  0  0  0
  1 31  1  0  0  0  0
  1 32  1  0  0  0  0
  2  3  1  0  0  0  0
  2 33  1  0  0  0  0
  2 34  1  0  0  0  0
  3  4  1  0  0  0  0
  4  5  2  0  0  0  0
  4  9  1  0  0  0  0
  5  6  1  0  0  0  0
  5 35  1  0  0  0  0
  6  7  2  0  0  0  0
  6 36  1  0  0  0  0
  7  8  1  0  0  0  0
  7 10  1  0  0  0  0
  8  9  2  0  0  0  0
  8 37  1  0  0  0  0
  9 38  1  0  0  0  0
 10 11  1  0  0  0  0
 10 39  1  0  0  0  0
 11 12  1  0  0  0  0
 11 40  1  0  0  0  0
 11 41  1  0  0  0  0
 12 13  1  0  0  0  0
 12 29  1  0  0  0  0
 12 42  1  0  0  0  0
 13 14  1  0  0  0  0
 13 43  1  0  0  0  0
 13 44  1  0  0  0  0
 14 15  1  0  0  0  0
 14 23  1  0  0  0  0
 15 16  2  0  0  0  0
 15 20  1  0  0  0  0
 16 17  1  0  0  0  0
 16 22  1  0  0  0  0
 17 18  2  0  0  0  0
 17 45  1  0  0  0  0
 18 19  1  0  0  0  0
 18 21  1  0  0  0  0
 19 20  2  0  0  0  0
 19 46  1  0  0  0  0
 20 47  1  0  0  0  0
 22 23  2  0  0  0  0
 22 27  1  0  0  0  0
 23 24  1  0  0  0  0
 24 25  2  0  0  0  0
 24 48  1  0  0  0  0
 25 26  1  0  0  0  0
 25 49  1  0  0  0  0
 26 27  2  0  0  0  0
 26 28  1  0  0  0  0
 27 50  1  0  0  0  0
 29 51  1  0  0  0  0
M  END
$$$$
Target_lig_745
 OpenBabel04172506213D

 51 54  0  0  1  0  0  0  0  0999 V2000
    5.9431    4.9858    8.5559 C   0  0  0  0  0  0  0  0  0  0  0  0
    6.6017    4.6251    7.2392 C   0  0  0  0  0  0  0  0  0  0  0  0
    6.3089    3.2592    6.9360 O   0  0  0  0  0  0  0  0  0  0  0  0
    6.8638    2.7574    5.7904 C   0  0  0  0  0  0  0  0  0  0  0  0
    7.6884    3.4688    4.9232 C   0  0  0  0  0  0  0  0  0  0  0  0
    8.2200    2.8513    3.7927 C   0  0  0  0  0  0  0  0  0  0  0  0
    7.9147    1.5324    3.4735 C   0  0  0  0  0  0  0  0  0  0  0  0
    7.0898    0.8224    4.3554 C   0  0  0  0  0  0  0  0  0  0  0  0
    6.5737    1.4231    5.5078 C   0  0  0  0  0  0  0  0  0  0  0  0
    8.4478    0.8583    2.3833 N   0  0  0  0  0  0  0  0  0  0  0  0
    9.3804    1.5009    1.4690 C   0  0  0  0  0  0  0  0  0  0  0  0
   10.8419    1.3989    1.9825 C   0  0  3  0  0  0  0  0  0  0  0  0
   11.1749   -0.0825    2.1225 C   0  0  0  0  0  0  0  0  0  0  0  0
   12.5485   -0.4634    2.4629 N   0  0  0  0  0  0  0  0  0  0  0  0
   13.2672   -1.1481    1.4834 C   0  0  0  0  0  0  0  0  0  0  0  0
   13.3818   -2.4373    1.9958 C   0  0  0  0  0  0  0  0  0  0  0  0
   13.4581   -3.5081    1.0893 C   0  0  0  0  0  0  0  0  0  0  0  0
   13.4439   -3.2175   -0.2797 C   0  0  0  0  0  0  0  0  0  0  0  0
   13.5369   -1.9059   -0.7483 C   0  0  0  0  0  0  0  0  0  0  0  0
   13.4801   -0.8301    0.1368 C   0  0  0  0  0  0  0  0  0  0  0  0
   13.2125   -4.4966   -1.4098 Cl  0  0  0  0  0  0  0  0  0  0  0  0
   13.3557   -2.3062    3.4181 C   0  0  0  0  0  0  0  0  0  0  0  0
   12.8402   -1.0347    3.6976 C   0  0  0  0  0  0  0  0  0  0  0  0
   12.5416   -0.6160    5.0031 C   0  0  0  0  0  0  0  0  0  0  0  0
   12.8379   -1.4968    6.0500 C   0  0  0  0  0  0  0  0  0  0  0  0
   13.3917   -2.7489    5.7944 C   0  0  0  0  0  0  0  0  0  0  0  0
   13.6385   -3.1779    4.4883 C   0  0  0  0  0  0  0  0  0  0  0  0
   13.7523   -3.8051    7.1077 Cl  0  0  0  0  0  0  0  0  0  0  0  0
   11.7065    2.0585    1.0502 O   0  0  0  0  0  0  0  0  0  0  0  0
    6.1266    6.0354    8.8040 H   0  0  0  0  0  0  0  0  0  0  0  0
    6.3341    4.3602    9.3659 H   0  0  0  0  0  0  0  0  0  0  0  0
    4.8622    4.8136    8.5124 H   0  0  0  0  0  0  0  0  0  0  0  0
    7.6840    4.7649    7.3415 H   0  0  0  0  0  0  0  0  0  0  0  0
    6.2071    5.2792    6.4528 H   0  0  0  0  0  0  0  0  0  0  0  0
    7.9496    4.5064    5.0952 H   0  0  0  0  0  0  0  0  0  0  0  0
    8.8668    3.4483    3.1619 H   0  0  0  0  0  0  0  0  0  0  0  0
    6.8748   -0.2376    4.1849 H   0  0  0  0  0  0  0  0  0  0  0  0
    5.9543    0.8446    6.1903 H   0  0  0  0  0  0  0  0  0  0  0  0
    7.7828    0.2168    1.9532 H   0  0  0  0  0  0  0  0  0  0  0  0
    9.1069    2.5355    1.2353 H   0  0  0  0  0  0  0  0  0  0  0  0
    9.3148    0.9847    0.5019 H   0  0  0  0  0  0  0  0  0  0  0  0
   10.9588    1.9023    2.9463 H   0  0  0  0  0  0  0  0  0  0  0  0
   10.9527   -0.5759    1.1640 H   0  0  0  0  0  0  0  0  0  0  0  0
   10.5243   -0.5665    2.8610 H   0  0  0  0  0  0  0  0  0  0  0  0
   13.4003   -4.5301    1.4463 H   0  0  0  0  0  0  0  0  0  0  0  0
   13.5739   -1.7081   -1.8159 H   0  0  0  0  0  0  0  0  0  0  0  0
   13.4602    0.1954   -0.2182 H   0  0  0  0  0  0  0  0  0  0  0  0
   12.0783    0.3462    5.2004 H   0  0  0  0  0  0  0  0  0  0  0  0
   12.6139   -1.2011    7.0728 H   0  0  0  0  0  0  0  0  0  0  0  0
   14.0534   -4.1618    4.2953 H   0  0  0  0  0  0  0  0  0  0  0  0
   11.6174    1.6210    0.1855 H   0  0  0  0  0  0  0  0  0  0  0  0
  1  2  1  0  0  0  0
  1 30  1  0  0  0  0
  1 31  1  0  0  0  0
  1 32  1  0  0  0  0
  2  3  1  0  0  0  0
  2 33  1  0  0  0  0
  2 34  1  0  0  0  0
  3  4  1  0  0  0  0
  4  5  2  0  0  0  0
  4  9  1  0  0  0  0
  5  6  1  0  0  0  0
  5 35  1  0  0  0  0
  6  7  2  0  0  0  0
  6 36  1  0  0  0  0
  7  8  1  0  0  0  0
  7 10  1  0  0  0  0
  8  9  2  0  0  0  0
  8 37  1  0  0  0  0
  9 38  1  0  0  0  0
 10 11  1  0  0  0  0
 10 39  1  0  0  0  0
 11 12  1  0  0  0  0
 11 40  1  0  0  0  0
 11 41  1  0  0  0  0
 12 13  1  0  0  0  0
 12 29  1  0  0  0  0
 12 42  1  0  0  0  0
 13 14  1  0  0  0  0
 13 43  1  0  0  0  0
 13 44  1  0  0  0  0
 14 15  1  0  0  0  0
 14 23  1  0  0  0  0
 15 16  2  0  0  0  0
 15 20  1  0  0  0  0
 16 17  1  0  0  0  0
 16 22  1  0  0  0  0
 17 18  2  0  0  0  0
 17 45  1  0  0  0  0
 18 19  1  0  0  0  0
 18 21  1  0  0  0  0
 19 20  2  0  0  0  0
 19 46  1  0  0  0  0
 20 47  1  0  0  0  0
 22 23  2  0  0  0  0
 22 27  1  0  0  0  0
 23 24  1  0  0  0  0
 24 25  2  0  0  0  0
 24 48  1  0  0  0  0
 25 26  1  0  0  0  0
 25 49  1  0  0  0  0
 26 27  2  0  0  0  0
 26 28  1  0  0  0  0
 27 50  1  0  0  0  0
 29 51  1  0  0  0  0
M  END
$$$$
Target_lig_746
 OpenBabel04172506213D

 51 53  0  0  1  0  0  0  0  0999 V2000
    6.4185    1.3414   -9.6974 C   0  0  0  0  0  0  0  0  0  0  0  0
    7.0864    0.8481   -8.4257 C   0  0  0  0  0  0  0  0  0  0  0  0
    6.4645    1.4902   -7.3114 O   0  0  0  0  0  0  0  0  0  0  0  0
    6.9974    1.2383   -6.0762 C   0  0  0  0  0  0  0  0  0  0  0  0
    8.0677    0.3924   -5.8092 C   0  0  0  0  0  0  0  0  0  0  0  0
    8.5476    0.2364   -4.4983 C   0  0  0  0  0  0  0  0  0  0  0  0
    7.9476    0.8842   -3.4209 C   0  0  0  0  0  0  0  0  0  0  0  0
    6.8739    1.7417   -3.7035 C   0  0  0  0  0  0  0  0  0  0  0  0
    6.3943    1.9104   -5.0152 C   0  0  0  0  0  0  0  0  0  0  0  0
    8.4231    0.8146   -2.1051 N   0  0  0  0  0  0  0  0  0  0  0  0
    9.5331   -0.0680   -1.7337 C   0  0  0  0  0  0  0  0  0  0  0  0
   10.9433    0.6018   -1.8693 C   0  0  3  0  0  0  0  0  0  0  0  0
   11.1465    1.6444   -0.7571 C   0  0  0  0  0  0  0  0  0  0  0  0
   11.9497    2.8464   -0.9387 N   0  0  0  0  0  0  0  0  0  0  0  0
   12.9947    3.2958   -1.7447 C   0  0  0  0  0  0  0  0  0  0  0  0
   14.3540    2.9949   -1.8908 C   0  0  0  0  0  0  0  0  0  0  0  0
   15.1367    3.9163   -2.6310 C   0  0  0  0  0  0  0  0  0  0  0  0
   14.5646    5.0028   -3.2964 C   0  0  0  0  0  0  0  0  0  0  0  0
   13.2063    5.2671   -3.1976 C   0  0  0  0  0  0  0  0  0  0  0  0
   12.4729    4.4860   -2.3061 C   0  0  0  0  0  0  0  0  0  0  0  0
   11.1408    4.5428   -1.8102 C   0  0  0  0  0  0  0  0  0  0  0  0
   11.4033    4.0640   -0.5005 C   0  0  0  0  0  0  0  0  0  0  0  0
   12.1218    4.6892    0.6815 C   0  0  0  0  0  0  0  0  0  0  0  0
    9.9953    4.2494   -2.7137 C   0  0  0  0  0  0  0  0  0  0  0  0
   15.6474    6.2228   -4.2622 Br  0  0  0  0  0  0  0  0  0  0  0  0
   11.9351   -0.4315   -1.7252 O   0  0  0  0  0  0  0  0  0  0  0  0
    6.8423    0.8486  -10.5772 H   0  0  0  0  0  0  0  0  0  0  0  0
    6.5474    2.4230   -9.8044 H   0  0  0  0  0  0  0  0  0  0  0  0
    5.3408    1.1483   -9.6685 H   0  0  0  0  0  0  0  0  0  0  0  0
    8.1520    1.1011   -8.4736 H   0  0  0  0  0  0  0  0  0  0  0  0
    6.9613   -0.2388   -8.3489 H   0  0  0  0  0  0  0  0  0  0  0  0
    8.5704   -0.1602   -6.5952 H   0  0  0  0  0  0  0  0  0  0  0  0
    9.3997   -0.4199   -4.3601 H   0  0  0  0  0  0  0  0  0  0  0  0
    6.3926    2.3009   -2.9001 H   0  0  0  0  0  0  0  0  0  0  0  0
    5.5620    2.5813   -5.2053 H   0  0  0  0  0  0  0  0  0  0  0  0
    7.6472    0.7996   -1.4437 H   0  0  0  0  0  0  0  0  0  0  0  0
    9.4908   -1.0218   -2.2739 H   0  0  0  0  0  0  0  0  0  0  0  0
    9.3900   -0.3576   -0.6830 H   0  0  0  0  0  0  0  0  0  0  0  0
   11.0619    1.0346   -2.8670 H   0  0  0  0  0  0  0  0  0  0  0  0
   11.4936    1.1785    0.1699 H   0  0  0  0  0  0  0  0  0  0  0  0
   10.1426    2.0437   -0.5387 H   0  0  0  0  0  0  0  0  0  0  0  0
   14.8304    2.1970   -1.3341 H   0  0  0  0  0  0  0  0  0  0  0  0
   16.2157    3.7988   -2.6529 H   0  0  0  0  0  0  0  0  0  0  0  0
   12.7680    6.1458   -3.6545 H   0  0  0  0  0  0  0  0  0  0  0  0
   13.0222    5.2328    0.3618 H   0  0  0  0  0  0  0  0  0  0  0  0
   12.4604    3.9118    1.3798 H   0  0  0  0  0  0  0  0  0  0  0  0
   11.4774    5.3814    1.2251 H   0  0  0  0  0  0  0  0  0  0  0  0
   10.0525    4.8711   -3.6121 H   0  0  0  0  0  0  0  0  0  0  0  0
    9.0314    4.3990   -2.2215 H   0  0  0  0  0  0  0  0  0  0  0  0
   10.0466    3.2076   -3.0537 H   0  0  0  0  0  0  0  0  0  0  0  0
   11.7987   -0.8650   -0.8656 H   0  0  0  0  0  0  0  0  0  0  0  0
  1  2  1  0  0  0  0
  1 27  1  0  0  0  0
  1 28  1  0  0  0  0
  1 29  1  0  0  0  0
  2  3  1  0  0  0  0
  2 30  1  0  0  0  0
  2 31  1  0  0  0  0
  3  4  1  0  0  0  0
  4  5  1  0  0  0  0
  4  9  2  0  0  0  0
  5  6  2  0  0  0  0
  5 32  1  0  0  0  0
  6  7  1  0  0  0  0
  6 33  1  0  0  0  0
  7  8  2  0  0  0  0
  7 10  1  0  0  0  0
  8  9  1  0  0  0  0
  8 34  1  0  0  0  0
  9 35  1  0  0  0  0
 10 11  1  0  0  0  0
 10 36  1  0  0  0  0
 11 12  1  0  0  0  0
 11 37  1  0  0  0  0
 11 38  1  0  0  0  0
 12 13  1  0  0  0  0
 12 26  1  0  0  0  0
 12 39  1  0  0  0  0
 13 14  1  0  0  0  0
 13 40  1  0  0  0  0
 13 41  1  0  0  0  0
 14 15  1  0  0  0  0
 14 22  1  0  0  0  0
 15 16  1  0  0  0  0
 15 20  2  0  0  0  0
 16 17  2  0  0  0  0
 16 42  1  0  0  0  0
 17 18  1  0  0  0  0
 17 43  1  0  0  0  0
 18 19  2  0  0  0  0
 18 25  1  0  0  0  0
 19 20  1  0  0  0  0
 19 44  1  0  0  0  0
 20 21  1  0  0  0  0
 21 22  2  0  0  0  0
 21 24  1  0  0  0  0
 22 23  1  0  0  0  0
 23 45  1  0  0  0  0
 23 46  1  0  0  0  0
 23 47  1  0  0  0  0
 24 48  1  0  0  0  0
 24 49  1  0  0  0  0
 24 50  1  0  0  0  0
 26 51  1  0  0  0  0
M  END
$$$$
Target_lig_747
 OpenBabel04172506213D

 53 55  0  0  1  0  0  0  0  0999 V2000
    1.8529    3.7119    0.9960 C   0  0  0  0  0  0  0  0  0  0  0  0
    3.1931    3.0254    0.8143 C   0  0  0  0  0  0  0  0  0  0  0  0
    4.1465    3.5365    1.7505 O   0  0  0  0  0  0  0  0  0  0  0  0
    5.3668    2.9064    1.7464 C   0  0  0  0  0  0  0  0  0  0  0  0
    5.7428    1.8948    0.8664 C   0  0  0  0  0  0  0  0  0  0  0  0
    6.9882    1.2694    0.9871 C   0  0  0  0  0  0  0  0  0  0  0  0
    7.9143    1.6596    1.9563 C   0  0  0  0  0  0  0  0  0  0  0  0
    7.5336    2.6915    2.8277 C   0  0  0  0  0  0  0  0  0  0  0  0
    6.2748    3.3148    2.7192 C   0  0  0  0  0  0  0  0  0  0  0  0
    9.1172    0.9862    2.1826 N   0  0  0  0  0  0  0  0  0  0  0  0
    9.5291   -0.1295    1.3292 C   0  0  0  0  0  0  0  0  0  0  0  0
   10.9187   -0.6674    1.7525 C   0  0  3  0  0  0  0  0  0  0  0  0
   11.2277   -1.9545    0.9394 C   0  0  0  0  0  0  0  0  0  0  0  0
   12.4234   -2.7104    1.4062 N   0  0  0  0  0  0  0  0  0  0  0  0
   13.6501   -2.5661    0.6971 C   0  0  0  0  0  0  0  0  0  0  0  0
   14.8766   -2.8103    1.3567 C   0  0  0  0  0  0  0  0  0  0  0  0
   16.1017   -2.8598    0.6778 C   0  0  0  0  0  0  0  0  0  0  0  0
   16.1384   -2.6084   -0.6846 C   0  0  0  0  0  0  0  0  0  0  0  0
   14.9682   -2.2750   -1.3563 C   0  0  0  0  0  0  0  0  0  0  0  0
   13.7409   -2.2566   -0.6709 C   0  0  0  0  0  0  0  0  0  0  0  0
   17.7672   -2.7534   -1.6314 Br  0  0  0  0  0  0  0  0  0  0  0  0
   12.1677   -3.6995    2.4125 C   0  0  0  0  0  0  0  0  0  0  0  0
   12.9176   -4.8924    2.4719 C   0  0  0  0  0  0  0  0  0  0  0  0
   12.7561   -5.8268    3.5042 C   0  0  0  0  0  0  0  0  0  0  0  0
   11.8159   -5.5982    4.4962 C   0  0  0  0  0  0  0  0  0  0  0  0
   11.0106   -4.4700    4.4388 C   0  0  0  0  0  0  0  0  0  0  0  0
   11.1828   -3.5463    3.4014 C   0  0  0  0  0  0  0  0  0  0  0  0
   11.6205   -6.8186    5.9255 Br  0  0  0  0  0  0  0  0  0  0  0  0
   11.9076    0.3527    1.5597 O   0  0  0  0  0  0  0  0  0  0  0  0
    1.1426    3.3510    0.2442 H   0  0  0  0  0  0  0  0  0  0  0  0
    1.9490    4.7968    0.8987 H   0  0  0  0  0  0  0  0  0  0  0  0
    1.4418    3.5050    1.9888 H   0  0  0  0  0  0  0  0  0  0  0  0
    3.5457    3.2137   -0.2064 H   0  0  0  0  0  0  0  0  0  0  0  0
    3.0463    1.9499    0.9714 H   0  0  0  0  0  0  0  0  0  0  0  0
    5.0862    1.5463    0.0780 H   0  0  0  0  0  0  0  0  0  0  0  0
    7.2104    0.4710    0.2874 H   0  0  0  0  0  0  0  0  0  0  0  0
    8.2098    3.0094    3.6179 H   0  0  0  0  0  0  0  0  0  0  0  0
    6.0092    4.1010    3.4200 H   0  0  0  0  0  0  0  0  0  0  0  0
    9.8814    1.5842    2.4888 H   0  0  0  0  0  0  0  0  0  0  0  0
    9.5736    0.2008    0.2838 H   0  0  0  0  0  0  0  0  0  0  0  0
    8.7890   -0.9360    1.4145 H   0  0  0  0  0  0  0  0  0  0  0  0
   10.9075   -0.8544    2.8257 H   0  0  0  0  0  0  0  0  0  0  0  0
   11.3144   -1.6623   -0.1103 H   0  0  0  0  0  0  0  0  0  0  0  0
   10.3580   -2.6267    0.9556 H   0  0  0  0  0  0  0  0  0  0  0  0
   14.8850   -2.9993    2.4288 H   0  0  0  0  0  0  0  0  0  0  0  0
   17.0067   -3.1132    1.2233 H   0  0  0  0  0  0  0  0  0  0  0  0
   14.9904   -2.0579   -2.4216 H   0  0  0  0  0  0  0  0  0  0  0  0
   12.8642   -2.0488   -1.2729 H   0  0  0  0  0  0  0  0  0  0  0  0
   13.6501   -5.1214    1.7009 H   0  0  0  0  0  0  0  0  0  0  0  0
   13.3800   -6.7186    3.5222 H   0  0  0  0  0  0  0  0  0  0  0  0
   10.2607   -4.2812    5.2013 H   0  0  0  0  0  0  0  0  0  0  0  0
   10.5167   -2.6894    3.4301 H   0  0  0  0  0  0  0  0  0  0  0  0
   11.9291    0.5971    0.6217 H   0  0  0  0  0  0  0  0  0  0  0  0
  1  2  1  0  0  0  0
  1 30  1  0  0  0  0
  1 31  1  0  0  0  0
  1 32  1  0  0  0  0
  2  3  1  0  0  0  0
  2 33  1  0  0  0  0
  2 34  1  0  0  0  0
  3  4  1  0  0  0  0
  4  5  1  0  0  0  0
  4  9  2  0  0  0  0
  5  6  2  0  0  0  0
  5 35  1  0  0  0  0
  6  7  1  0  0  0  0
  6 36  1  0  0  0  0
  7  8  2  0  0  0  0
  7 10  1  0  0  0  0
  8  9  1  0  0  0  0
  8 37  1  0  0  0  0
  9 38  1  0  0  0  0
 10 11  1  0  0  0  0
 10 39  1  0  0  0  0
 11 12  1  0  0  0  0
 11 40  1  0  0  0  0
 11 41  1  0  0  0  0
 12 13  1  0  0  0  0
 12 29  1  0  0  0  0
 12 42  1  0  0  0  0
 13 14  1  0  0  0  0
 13 43  1  0  0  0  0
 13 44  1  0  0  0  0
 14 15  1  0  0  0  0
 14 22  1  0  0  0  0
 15 16  1  0  0  0  0
 15 20  2  0  0  0  0
 16 17  2  0  0  0  0
 16 45  1  0  0  0  0
 17 18  1  0  0  0  0
 17 46  1  0  0  0  0
 18 19  2  0  0  0  0
 18 21  1  0  0  0  0
 19 20  1  0  0  0  0
 19 47  1  0  0  0  0
 20 48  1  0  0  0  0
 22 23  1  0  0  0  0
 22 27  2  0  0  0  0
 23 24  2  0  0  0  0
 23 49  1  0  0  0  0
 24 25  1  0  0  0  0
 24 50  1  0  0  0  0
 25 26  2  0  0  0  0
 25 28  1  0  0  0  0
 26 27  1  0  0  0  0
 26 51  1  0  0  0  0
 27 52  1  0  0  0  0
 29 53  1  0  0  0  0
M  END
$$$$
Target_lig_725
 OpenBabel04172506213D

 47 50  0  0  1  0  0  0  0  0999 V2000
    6.7643   -2.5341   -3.1298 C   0  0  0  0  0  0  0  0  0  0  0  0
    7.3158   -2.7103   -1.7393 C   0  0  0  0  0  0  0  0  0  0  0  0
    8.6984   -2.4925   -1.5619 C   0  0  0  0  0  0  0  0  0  0  0  0
    9.2908   -2.5993   -0.3071 C   0  0  0  0  0  0  0  0  0  0  0  0
    8.5059   -2.9002    0.7931 C   0  0  0  0  0  0  0  0  0  0  0  0
    7.1304   -3.1015    0.6343 C   0  0  0  0  0  0  0  0  0  0  0  0
    6.5082   -3.0466   -0.6275 C   0  0  0  0  0  0  0  0  0  0  0  0
    5.1057   -3.1888   -0.7606 N   0  0  0  0  0  0  0  0  0  0  0  0
    4.4524   -4.1383    0.1480 C   0  0  0  0  0  0  0  0  0  0  0  0
    2.9129   -4.1262    0.0583 C   0  0  3  0  0  0  0  0  0  0  0  0
    2.3464   -4.4968   -1.3246 C   0  0  0  0  0  0  0  0  0  0  0  0
    0.8855   -4.5344   -1.4696 N   0  0  0  0  0  0  0  0  0  0  0  0
   -0.0481   -3.7334   -0.8286 C   0  0  0  0  0  0  0  0  0  0  0  0
   -1.3057   -4.2875   -1.0918 C   0  0  0  0  0  0  0  0  0  0  0  0
   -2.4496   -3.7524   -0.4562 C   0  0  0  0  0  0  0  0  0  0  0  0
   -2.3100   -2.6681    0.4092 C   0  0  0  0  0  0  0  0  0  0  0  0
   -1.0720   -2.0801    0.6119 C   0  0  0  0  0  0  0  0  0  0  0  0
    0.0669   -2.5891   -0.0186 C   0  0  0  0  0  0  0  0  0  0  0  0
   -3.8313   -1.9683    1.2874 Br  0  0  0  0  0  0  0  0  0  0  0  0
   -1.1308   -5.3043   -2.0772 C   0  0  0  0  0  0  0  0  0  0  0  0
    0.2351   -5.4100   -2.3332 C   0  0  0  0  0  0  0  0  0  0  0  0
    0.7243   -6.3013   -3.3106 C   0  0  0  0  0  0  0  0  0  0  0  0
   -0.1977   -7.0641   -4.0399 C   0  0  0  0  0  0  0  0  0  0  0  0
   -1.5603   -6.9671   -3.7837 C   0  0  0  0  0  0  0  0  0  0  0  0
   -2.0431   -6.1052   -2.7990 C   0  0  0  0  0  0  0  0  0  0  0  0
   -2.7843   -7.9902   -4.8021 Br  0  0  0  0  0  0  0  0  0  0  0  0
    2.4023   -5.0095    1.0691 O   0  0  0  0  0  0  0  0  0  0  0  0
    7.5661   -2.5498   -3.8777 H   0  0  0  0  0  0  0  0  0  0  0  0
    6.2443   -1.5749   -3.2112 H   0  0  0  0  0  0  0  0  0  0  0  0
    6.0846   -3.3490   -3.3954 H   0  0  0  0  0  0  0  0  0  0  0  0
    9.3254   -2.2274   -2.4106 H   0  0  0  0  0  0  0  0  0  0  0  0
   10.3566   -2.4280   -0.1870 H   0  0  0  0  0  0  0  0  0  0  0  0
    8.9482   -2.9627    1.7833 H   0  0  0  0  0  0  0  0  0  0  0  0
    6.5619   -3.2813    1.5389 H   0  0  0  0  0  0  0  0  0  0  0  0
    4.8557   -3.3323   -1.7329 H   0  0  0  0  0  0  0  0  0  0  0  0
    4.6698   -3.8831    1.1914 H   0  0  0  0  0  0  0  0  0  0  0  0
    4.8357   -5.1520   -0.0153 H   0  0  0  0  0  0  0  0  0  0  0  0
    2.6150   -3.1190    0.3374 H   0  0  0  0  0  0  0  0  0  0  0  0
    2.6977   -5.5101   -1.5575 H   0  0  0  0  0  0  0  0  0  0  0  0
    2.7063   -3.8189   -2.1049 H   0  0  0  0  0  0  0  0  0  0  0  0
   -3.4279   -4.1836   -0.6482 H   0  0  0  0  0  0  0  0  0  0  0  0
   -0.9682   -1.2180    1.2664 H   0  0  0  0  0  0  0  0  0  0  0  0
    1.0062   -2.0754    0.1368 H   0  0  0  0  0  0  0  0  0  0  0  0
    1.7830   -6.3817   -3.5313 H   0  0  0  0  0  0  0  0  0  0  0  0
    0.1634   -7.7303   -4.8204 H   0  0  0  0  0  0  0  0  0  0  0  0
   -3.1119   -6.0189   -2.6100 H   0  0  0  0  0  0  0  0  0  0  0  0
    2.6884   -5.9180    0.8732 H   0  0  0  0  0  0  0  0  0  0  0  0
  1  2  1  0  0  0  0
  1 28  1  0  0  0  0
  1 29  1  0  0  0  0
  1 30  1  0  0  0  0
  2  3  2  0  0  0  0
  2  7  1  0  0  0  0
  3  4  1  0  0  0  0
  3 31  1  0  0  0  0
  4  5  2  0  0  0  0
  4 32  1  0  0  0  0
  5  6  1  0  0  0  0
  5 33  1  0  0  0  0
  6  7  2  0  0  0  0
  6 34  1  0  0  0  0
  7  8  1  0  0  0  0
  8  9  1  0  0  0  0
  8 35  1  0  0  0  0
  9 10  1  0  0  0  0
  9 36  1  0  0  0  0
  9 37  1  0  0  0  0
 10 11  1  0  0  0  0
 10 27  1  0  0  0  0
 10 38  1  0  0  0  0
 11 12  1  0  0  0  0
 11 39  1  0  0  0  0
 11 40  1  0  0  0  0
 12 13  1  0  0  0  0
 12 21  1  0  0  0  0
 13 14  2  0  0  0  0
 13 18  1  0  0  0  0
 14 15  1  0  0  0  0
 14 20  1  0  0  0  0
 15 16  2  0  0  0  0
 15 41  1  0  0  0  0
 16 17  1  0  0  0  0
 16 19  1  0  0  0  0
 17 18  2  0  0  0  0
 17 42  1  0  0  0  0
 18 43  1  0  0  0  0
 20 21  2  0  0  0  0
 20 25  1  0  0  0  0
 21 22  1  0  0  0  0
 22 23  2  0  0  0  0
 22 44  1  0  0  0  0
 23 24  1  0  0  0  0
 23 45  1  0  0  0  0
 24 25  2  0  0  0  0
 24 26  1  0  0  0  0
 25 46  1  0  0  0  0
 27 47  1  0  0  0  0
M  END
$$$$
Target_lig_732
 OpenBabel04172506213D

 47 50  0  0  1  0  0  0  0  0999 V2000
    0.8806    7.2404    3.2125 C   0  0  0  0  0  0  0  0  0  0  0  0
    1.0244    7.7870    1.8137 C   0  0  0  0  0  0  0  0  0  0  0  0
    0.2705    7.3089    0.7146 C   0  0  0  0  0  0  0  0  0  0  0  0
    0.5332    7.8761   -0.5538 C   0  0  0  0  0  0  0  0  0  0  0  0
    1.4227    8.9313   -0.7380 C   0  0  0  0  0  0  0  0  0  0  0  0
    2.1189    9.4302    0.3473 C   0  0  0  0  0  0  0  0  0  0  0  0
    1.9273    8.8616    1.6078 C   0  0  0  0  0  0  0  0  0  0  0  0
    2.8542    9.5428    2.9042 Cl  0  0  0  0  0  0  0  0  0  0  0  0
   -0.6246    6.2091    0.8414 N   0  0  0  0  0  0  0  0  0  0  0  0
   -1.7414    6.2050   -0.1053 C   0  0  0  0  0  0  0  0  0  0  0  0
   -2.6672    4.9849   -0.0687 C   0  0  3  0  0  0  0  0  0  0  0  0
   -3.4058    4.7220    1.2501 C   0  0  0  0  0  0  0  0  0  0  0  0
   -4.2364    3.5096    1.3648 N   0  0  0  0  0  0  0  0  0  0  0  0
   -4.4694    2.5051    0.4308 C   0  0  0  0  0  0  0  0  0  0  0  0
   -5.2346    1.5201    1.0714 C   0  0  0  0  0  0  0  0  0  0  0  0
   -5.6282    0.3628    0.3564 C   0  0  0  0  0  0  0  0  0  0  0  0
   -5.2929    0.2288   -0.9893 C   0  0  0  0  0  0  0  0  0  0  0  0
   -4.5467    1.2000   -1.6260 C   0  0  0  0  0  0  0  0  0  0  0  0
   -4.1114    2.3270   -0.9231 C   0  0  0  0  0  0  0  0  0  0  0  0
   -5.8822   -1.2800   -1.9624 Br  0  0  0  0  0  0  0  0  0  0  0  0
   -5.4904    1.9581    2.4011 C   0  0  0  0  0  0  0  0  0  0  0  0
   -4.9286    3.2265    2.5439 C   0  0  0  0  0  0  0  0  0  0  0  0
   -5.1036    3.9731    3.7256 C   0  0  0  0  0  0  0  0  0  0  0  0
   -5.8359    3.3999    4.7749 C   0  0  0  0  0  0  0  0  0  0  0  0
   -6.3568    2.1164    4.6570 C   0  0  0  0  0  0  0  0  0  0  0  0
   -6.1958    1.3853    3.4813 C   0  0  0  0  0  0  0  0  0  0  0  0
   -7.3126    1.3505    6.0991 Br  0  0  0  0  0  0  0  0  0  0  0  0
   -3.6241    5.2293   -1.1221 O   0  0  0  0  0  0  0  0  0  0  0  0
    0.2547    6.3503    3.2805 H   0  0  0  0  0  0  0  0  0  0  0  0
    0.4371    8.0026    3.8631 H   0  0  0  0  0  0  0  0  0  0  0  0
    1.8591    6.9497    3.6095 H   0  0  0  0  0  0  0  0  0  0  0  0
    0.0511    7.5089   -1.4536 H   0  0  0  0  0  0  0  0  0  0  0  0
    1.5699    9.3500   -1.7317 H   0  0  0  0  0  0  0  0  0  0  0  0
    2.8160   10.2511    0.2051 H   0  0  0  0  0  0  0  0  0  0  0  0
   -0.9295    6.0965    1.8018 H   0  0  0  0  0  0  0  0  0  0  0  0
   -1.3591    6.1959   -1.1319 H   0  0  0  0  0  0  0  0  0  0  0  0
   -2.3352    7.1225    0.0092 H   0  0  0  0  0  0  0  0  0  0  0  0
   -2.0699    4.1043   -0.3319 H   0  0  0  0  0  0  0  0  0  0  0  0
   -4.0836    5.5594    1.4580 H   0  0  0  0  0  0  0  0  0  0  0  0
   -2.6783    4.6494    2.0683 H   0  0  0  0  0  0  0  0  0  0  0  0
   -6.2243   -0.3974    0.8534 H   0  0  0  0  0  0  0  0  0  0  0  0
   -4.2908    1.1113   -2.6794 H   0  0  0  0  0  0  0  0  0  0  0  0
   -3.5262    3.0431   -1.4820 H   0  0  0  0  0  0  0  0  0  0  0  0
   -4.7016    4.9751    3.8354 H   0  0  0  0  0  0  0  0  0  0  0  0
   -5.9932    3.9698    5.6879 H   0  0  0  0  0  0  0  0  0  0  0  0
   -6.6190    0.3898    3.3825 H   0  0  0  0  0  0  0  0  0  0  0  0
   -4.2757    5.8851   -0.8179 H   0  0  0  0  0  0  0  0  0  0  0  0
  1  2  1  0  0  0  0
  1 29  1  0  0  0  0
  1 30  1  0  0  0  0
  1 31  1  0  0  0  0
  2  3  2  0  0  0  0
  2  7  1  0  0  0  0
  3  4  1  0  0  0  0
  3  9  1  0  0  0  0
  4  5  2  0  0  0  0
  4 32  1  0  0  0  0
  5  6  1  0  0  0  0
  5 33  1  0  0  0  0
  6  7  2  0  0  0  0
  6 34  1  0  0  0  0
  7  8  1  0  0  0  0
  9 10  1  0  0  0  0
  9 35  1  0  0  0  0
 10 11  1  0  0  0  0
 10 36  1  0  0  0  0
 10 37  1  0  0  0  0
 11 12  1  0  0  0  0
 11 28  1  0  0  0  0
 11 38  1  0  0  0  0
 12 13  1  0  0  0  0
 12 39  1  0  0  0  0
 12 40  1  0  0  0  0
 13 14  1  0  0  0  0
 13 22  1  0  0  0  0
 14 15  2  0  0  0  0
 14 19  1  0  0  0  0
 15 16  1  0  0  0  0
 15 21  1  0  0  0  0
 16 17  2  0  0  0  0
 16 41  1  0  0  0  0
 17 18  1  0  0  0  0
 17 20  1  0  0  0  0
 18 19  2  0  0  0  0
 18 42  1  0  0  0  0
 19 43  1  0  0  0  0
 21 22  2  0  0  0  0
 21 26  1  0  0  0  0
 22 23  1  0  0  0  0
 23 24  2  0  0  0  0
 23 44  1  0  0  0  0
 24 25  1  0  0  0  0
 24 45  1  0  0  0  0
 25 26  2  0  0  0  0
 25 27  1  0  0  0  0
 26 46  1  0  0  0  0
 28 47  1  0  0  0  0
M  END
$$$$
Target_lig_735
 OpenBabel04172506213D

 44 47  0  0  1  0  0  0  0  0999 V2000
   -1.3758    8.9301   -2.1769 C   0  0  0  0  0  0  0  0  0  0  0  0
   -0.5334    7.8167   -2.1082 C   0  0  0  0  0  0  0  0  0  0  0  0
    0.0259    7.4013   -0.8902 C   0  0  0  0  0  0  0  0  0  0  0  0
   -0.3641    8.0753    0.2736 C   0  0  0  0  0  0  0  0  0  0  0  0
   -1.2086    9.1855    0.2051 C   0  0  0  0  0  0  0  0  0  0  0  0
   -1.7041    9.6253   -1.0174 C   0  0  0  0  0  0  0  0  0  0  0  0
   -1.6416   10.0170    1.6496 Cl  0  0  0  0  0  0  0  0  0  0  0  0
    0.8580    6.2673   -0.8834 N   0  0  0  0  0  0  0  0  0  0  0  0
    1.9356    6.2484    0.1076 C   0  0  0  0  0  0  0  0  0  0  0  0
    2.7404    4.9377    0.0777 C   0  0  3  0  0  0  0  0  0  0  0  0
    3.5197    4.6860   -1.2205 C   0  0  0  0  0  0  0  0  0  0  0  0
    4.3397    3.4727   -1.3201 N   0  0  0  0  0  0  0  0  0  0  0  0
    5.4259    3.3861   -2.1948 C   0  0  0  0  0  0  0  0  0  0  0  0
    5.8313    2.0514   -2.2155 C   0  0  0  0  0  0  0  0  0  0  0  0
    6.8916    1.6609   -3.0691 C   0  0  0  0  0  0  0  0  0  0  0  0
    7.5381    2.6231   -3.8416 C   0  0  0  0  0  0  0  0  0  0  0  0
    7.1521    3.9581   -3.7863 C   0  0  0  0  0  0  0  0  0  0  0  0
    6.0818    4.3599   -2.9750 C   0  0  0  0  0  0  0  0  0  0  0  0
    8.9679    2.1043   -4.9653 Br  0  0  0  0  0  0  0  0  0  0  0  0
    5.0444    1.3417   -1.2686 C   0  0  0  0  0  0  0  0  0  0  0  0
    4.1387    2.2451   -0.6964 C   0  0  0  0  0  0  0  0  0  0  0  0
    3.2691    1.8085    0.3233 C   0  0  0  0  0  0  0  0  0  0  0  0
    3.3140    0.4813    0.7547 C   0  0  0  0  0  0  0  0  0  0  0  0
    4.2001   -0.4126    0.1830 C   0  0  0  0  0  0  0  0  0  0  0  0
    5.0635   -0.0029   -0.8302 C   0  0  0  0  0  0  0  0  0  0  0  0
    4.2659   -2.1935    0.8136 Br  0  0  0  0  0  0  0  0  0  0  0  0
    3.6290    4.9401    1.2032 O   0  0  0  0  0  0  0  0  0  0  0  0
   -1.7764    9.2485   -3.1359 H   0  0  0  0  0  0  0  0  0  0  0  0
   -0.3072    7.2812   -3.0267 H   0  0  0  0  0  0  0  0  0  0  0  0
   -0.0315    7.7433    1.2512 H   0  0  0  0  0  0  0  0  0  0  0  0
   -2.3547   10.4935   -1.0700 H   0  0  0  0  0  0  0  0  0  0  0  0
    1.1686    6.0522   -1.8272 H   0  0  0  0  0  0  0  0  0  0  0  0
    1.5190    6.3192    1.1203 H   0  0  0  0  0  0  0  0  0  0  0  0
    2.6028    7.1094   -0.0222 H   0  0  0  0  0  0  0  0  0  0  0  0
    1.9997    4.1516    0.2172 H   0  0  0  0  0  0  0  0  0  0  0  0
    4.1990    5.5323   -1.3720 H   0  0  0  0  0  0  0  0  0  0  0  0
    2.8385    4.6407   -2.0788 H   0  0  0  0  0  0  0  0  0  0  0  0
    7.2019    0.6206   -3.1033 H   0  0  0  0  0  0  0  0  0  0  0  0
    7.6812    4.7036   -4.3756 H   0  0  0  0  0  0  0  0  0  0  0  0
    5.7972    5.4060   -2.9493 H   0  0  0  0  0  0  0  0  0  0  0  0
    2.5843    2.4635    0.8427 H   0  0  0  0  0  0  0  0  0  0  0  0
    2.6531    0.1712    1.5607 H   0  0  0  0  0  0  0  0  0  0  0  0
    5.7698   -0.7015   -1.2668 H   0  0  0  0  0  0  0  0  0  0  0  0
    4.3401    5.5863    1.0433 H   0  0  0  0  0  0  0  0  0  0  0  0
  1  2  2  0  0  0  0
  1  6  1  0  0  0  0
  1 28  1  0  0  0  0
  2  3  1  0  0  0  0
  2 29  1  0  0  0  0
  3  4  2  0  0  0  0
  3  8  1  0  0  0  0
  4  5  1  0  0  0  0
  4 30  1  0  0  0  0
  5  6  2  0  0  0  0
  5  7  1  0  0  0  0
  6 31  1  0  0  0  0
  8  9  1  0  0  0  0
  8 32  1  0  0  0  0
  9 10  1  0  0  0  0
  9 33  1  0  0  0  0
  9 34  1  0  0  0  0
 10 11  1  0  0  0  0
 10 27  1  0  0  0  0
 10 35  1  0  0  0  0
 11 12  1  0  0  0  0
 11 36  1  0  0  0  0
 11 37  1  0  0  0  0
 12 13  1  0  0  0  0
 12 21  1  0  0  0  0
 13 14  2  0  0  0  0
 13 18  1  0  0  0  0
 14 15  1  0  0  0  0
 14 20  1  0  0  0  0
 15 16  2  0  0  0  0
 15 38  1  0  0  0  0
 16 17  1  0  0  0  0
 16 19  1  0  0  0  0
 17 18  2  0  0  0  0
 17 39  1  0  0  0  0
 18 40  1  0  0  0  0
 20 21  2  0  0  0  0
 20 25  1  0  0  0  0
 21 22  1  0  0  0  0
 22 23  2  0  0  0  0
 22 41  1  0  0  0  0
 23 24  1  0  0  0  0
 23 42  1  0  0  0  0
 24 25  2  0  0  0  0
 24 26  1  0  0  0  0
 25 43  1  0  0  0  0
 27 44  1  0  0  0  0
M  END
$$$$
Target_lig_736
 OpenBabel04172506213D

 50 54  0  0  1  0  0  0  0  0999 V2000
    0.9294   -0.1647    0.3625 O   0  0  0  0  0  0  0  0  0  0  0  0
    2.3519   -0.1348    0.1522 C   0  0  3  0  0  0  0  0  0  0  0  0
    2.8657    1.2410    0.5937 C   0  0  0  0  0  0  0  0  0  0  0  0
    4.2751    1.4797    0.3353 N   0  0  0  0  0  0  0  0  0  0  0  0
    4.7678    1.9713   -0.8584 C   0  0  0  0  0  0  0  0  0  0  0  0
    4.1202    2.3073   -2.0606 C   0  0  0  0  0  0  0  0  0  0  0  0
    4.8945    2.8172   -3.1073 C   0  0  0  0  0  0  0  0  0  0  0  0
    6.2672    2.9775   -2.9604 C   0  0  0  0  0  0  0  0  0  0  0  0
    6.9089    2.6311   -1.7700 C   0  0  0  0  0  0  0  0  0  0  0  0
    6.1467    2.1209   -0.6997 C   0  0  0  0  0  0  0  0  0  0  0  0
    6.4803    1.6862    0.6202 C   0  0  0  0  0  0  0  0  0  0  0  0
    5.2964    1.3019    1.2536 C   0  0  0  0  0  0  0  0  0  0  0  0
    5.2908    0.8309    2.5800 C   0  0  0  0  0  0  0  0  0  0  0  0
    6.5119    0.7337    3.2563 C   0  0  0  0  0  0  0  0  0  0  0  0
    7.6965    1.1122    2.6352 C   0  0  0  0  0  0  0  0  0  0  0  0
    7.6998    1.5962    1.3265 C   0  0  0  0  0  0  0  0  0  0  0  0
    9.3333    0.9704    3.5738 Br  0  0  0  0  0  0  0  0  0  0  0  0
    7.2863    3.6784   -4.3919 Br  0  0  0  0  0  0  0  0  0  0  0  0
    3.0166   -1.2534    0.9938 C   0  0  0  0  0  0  0  0  0  0  0  0
    2.6318   -2.5818    0.5167 N   0  0  0  0  0  0  0  0  0  0  0  0
    3.2130   -3.6661    1.1903 C   0  0  0  0  0  0  0  0  0  0  0  0
    3.4361   -3.6943    2.5746 C   0  0  0  0  0  0  0  0  0  0  0  0
    3.6869   -4.8944    3.2367 C   0  0  0  0  0  0  0  0  0  0  0  0
    3.6976   -6.1085    2.5339 C   0  0  0  0  0  0  0  0  0  0  0  0
    3.7084   -6.0424    1.1304 C   0  0  0  0  0  0  0  0  0  0  0  0
    3.4329   -4.8506    0.4677 C   0  0  0  0  0  0  0  0  0  0  0  0
    3.9027   -7.2319    0.4287 C   0  0  0  0  0  0  0  0  0  0  0  0
    3.4753   -8.4131    0.9703 C   0  0  0  0  0  0  0  0  0  0  0  0
    3.3673   -8.4823    2.3718 C   0  0  0  0  0  0  0  0  0  0  0  0
    3.6151   -7.3615    3.1270 C   0  0  0  0  0  0  0  0  0  0  0  0
    0.5146    0.5127   -0.1970 H   0  0  0  0  0  0  0  0  0  0  0  0
    2.5314   -0.3049   -0.9181 H   0  0  0  0  0  0  0  0  0  0  0  0
    2.6703    1.4025    1.6600 H   0  0  0  0  0  0  0  0  0  0  0  0
    2.2979    2.0277    0.0818 H   0  0  0  0  0  0  0  0  0  0  0  0
    3.0492    2.1880   -2.1873 H   0  0  0  0  0  0  0  0  0  0  0  0
    4.4072    3.0908   -4.0410 H   0  0  0  0  0  0  0  0  0  0  0  0
    7.9813    2.7572   -1.6593 H   0  0  0  0  0  0  0  0  0  0  0  0
    4.3751    0.5300    3.0800 H   0  0  0  0  0  0  0  0  0  0  0  0
    6.5240    0.3576    4.2763 H   0  0  0  0  0  0  0  0  0  0  0  0
    8.6278    1.8974    0.8492 H   0  0  0  0  0  0  0  0  0  0  0  0
    2.6911   -1.1190    2.0212 H   0  0  0  0  0  0  0  0  0  0  0  0
    4.0968   -1.1813    0.9174 H   0  0  0  0  0  0  0  0  0  0  0  0
    2.6557   -2.6786   -0.4938 H   0  0  0  0  0  0  0  0  0  0  0  0
    3.2871   -2.7972    3.1777 H   0  0  0  0  0  0  0  0  0  0  0  0
    3.7830   -4.8914    4.3244 H   0  0  0  0  0  0  0  0  0  0  0  0
    3.2462   -4.8710   -0.6058 H   0  0  0  0  0  0  0  0  0  0  0  0
    4.7317   -7.2553   -0.2895 H   0  0  0  0  0  0  0  0  0  0  0  0
    3.2803   -9.2645    0.3303 H   0  0  0  0  0  0  0  0  0  0  0  0
    3.1263   -9.4476    2.8226 H   0  0  0  0  0  0  0  0  0  0  0  0
    3.6256   -7.4620    4.2269 H   0  0  0  0  0  0  0  0  0  0  0  0
  1  2  1  0  0  0  0
  1 31  1  0  0  0  0
  2  3  1  0  0  0  0
  2 19  1  0  0  0  0
  2 32  1  0  0  0  0
  3  4  1  0  0  0  0
  3 33  1  0  0  0  0
  3 34  1  0  0  0  0
  4  5  1  0  0  0  0
  4 12  1  0  0  0  0
  5  6  1  0  0  0  0
  5 10  2  0  0  0  0
  6  7  2  0  0  0  0
  6 35  1  0  0  0  0
  7  8  1  0  0  0  0
  7 36  1  0  0  0  0
  8  9  2  0  0  0  0
  8 18  1  0  0  0  0
  9 10  1  0  0  0  0
  9 37  1  0  0  0  0
 10 11  1  0  0  0  0
 11 12  1  0  0  0  0
 11 16  2  0  0  0  0
 12 13  2  0  0  0  0
 13 14  1  0  0  0  0
 13 38  1  0  0  0  0
 14 15  2  0  0  0  0
 14 39  1  0  0  0  0
 15 16  1  0  0  0  0
 15 17  1  0  0  0  0
 16 40  1  0  0  0  0
 19 20  1  0  0  0  0
 19 41  1  0  0  0  0
 19 42  1  0  0  0  0
 20 21  1  0  0  0  0
 20 43  1  0  0  0  0
 21 22  1  0  0  0  0
 21 26  2  0  0  0  0
 22 23  2  0  0  0  0
 22 44  1  0  0  0  0
 23 24  1  0  0  0  0
 23 45  1  0  0  0  0
 24 25  1  0  0  0  0
 24 30  2  0  0  0  0
 25 26  1  0  0  0  0
 25 27  2  0  0  0  0
 26 46  1  0  0  0  0
 27 28  1  0  0  0  0
 27 47  1  0  0  0  0
 28 29  2  0  0  0  0
 28 48  1  0  0  0  0
 29 30  1  0  0  0  0
 29 49  1  0  0  0  0
 30 50  1  0  0  0  0
M  END
$$$$
Target_lig_738
 OpenBabel04172506213D

 50 53  0  0  1  0  0  0  0  0999 V2000
    3.9146   -2.3855    1.8444 C   0  0  0  0  0  0  0  0  0  0  0  0
    2.4567   -2.6880    1.6816 C   0  0  0  0  0  0  0  0  0  0  0  0
    1.7490   -3.4015    2.6479 C   0  0  0  0  0  0  0  0  0  0  0  0
    0.3863   -3.7181    2.4892 C   0  0  0  0  0  0  0  0  0  0  0  0
   -0.3100   -3.2914    1.3336 C   0  0  0  0  0  0  0  0  0  0  0  0
    0.4274   -2.5998    0.3576 C   0  0  0  0  0  0  0  0  0  0  0  0
    1.7800   -2.2877    0.5311 C   0  0  0  0  0  0  0  0  0  0  0  0
   -1.6446   -3.6820    1.1239 N   0  0  0  0  0  0  0  0  0  0  0  0
   -2.3989   -3.1826   -0.0301 C   0  0  0  0  0  0  0  0  0  0  0  0
   -3.8547   -3.7001   -0.0209 C   0  0  3  0  0  0  0  0  0  0  0  0
   -4.6590   -3.2665   -1.2575 C   0  0  0  0  0  0  0  0  0  0  0  0
   -4.8267   -1.8370   -1.4386 N   0  0  0  0  0  0  0  0  0  0  0  0
   -5.8759   -1.0959   -0.9179 C   0  0  0  0  0  0  0  0  0  0  0  0
   -5.7622    0.1978   -1.4369 C   0  0  0  0  0  0  0  0  0  0  0  0
   -6.7243    1.1666   -1.0836 C   0  0  0  0  0  0  0  0  0  0  0  0
   -7.7953    0.7978   -0.2675 C   0  0  0  0  0  0  0  0  0  0  0  0
   -7.9048   -0.4963    0.2297 C   0  0  0  0  0  0  0  0  0  0  0  0
   -6.9367   -1.4623   -0.0726 C   0  0  0  0  0  0  0  0  0  0  0  0
   -9.1410    2.0682    0.1264 Br  0  0  0  0  0  0  0  0  0  0  0  0
   -4.6435    0.2087   -2.3267 C   0  0  0  0  0  0  0  0  0  0  0  0
   -4.0791   -1.0679   -2.3154 C   0  0  0  0  0  0  0  0  0  0  0  0
   -2.9811   -1.3967   -3.1332 C   0  0  0  0  0  0  0  0  0  0  0  0
   -2.4842   -0.4190   -3.9980 C   0  0  0  0  0  0  0  0  0  0  0  0
   -3.0454    0.8517   -4.0278 C   0  0  0  0  0  0  0  0  0  0  0  0
   -4.1059    1.1910   -3.1853 C   0  0  0  0  0  0  0  0  0  0  0  0
   -2.3971    2.1285   -5.2647 Br  0  0  0  0  0  0  0  0  0  0  0  0
   -3.8858   -5.1425    0.0094 O   0  0  0  0  0  0  0  0  0  0  0  0
   -0.2868   -4.4873    3.5958 C   0  0  0  0  0  0  0  0  0  0  0  0
    4.2863   -2.7098    2.8217 H   0  0  0  0  0  0  0  0  0  0  0  0
    4.0920   -1.3077    1.7608 H   0  0  0  0  0  0  0  0  0  0  0  0
    4.4937   -2.9067    1.0740 H   0  0  0  0  0  0  0  0  0  0  0  0
    2.2723   -3.7288    3.5524 H   0  0  0  0  0  0  0  0  0  0  0  0
   -0.0392   -2.2695   -0.5644 H   0  0  0  0  0  0  0  0  0  0  0  0
    2.3011   -1.7394   -0.2489 H   0  0  0  0  0  0  0  0  0  0  0  0
   -2.1766   -3.7100    1.9913 H   0  0  0  0  0  0  0  0  0  0  0  0
   -1.9105   -3.5432   -0.9406 H   0  0  0  0  0  0  0  0  0  0  0  0
   -2.3989   -2.0869   -0.0287 H   0  0  0  0  0  0  0  0  0  0  0  0
   -4.3587   -3.3613    0.8897 H   0  0  0  0  0  0  0  0  0  0  0  0
   -5.6601   -3.7148   -1.2199 H   0  0  0  0  0  0  0  0  0  0  0  0
   -4.2125   -3.6827   -2.1684 H   0  0  0  0  0  0  0  0  0  0  0  0
   -6.6497    2.1747   -1.4789 H   0  0  0  0  0  0  0  0  0  0  0  0
   -8.7546   -0.7757    0.8486 H   0  0  0  0  0  0  0  0  0  0  0  0
   -7.0381   -2.4699    0.3151 H   0  0  0  0  0  0  0  0  0  0  0  0
   -2.5432   -2.3892   -3.1329 H   0  0  0  0  0  0  0  0  0  0  0  0
   -1.6639   -0.6731   -4.6650 H   0  0  0  0  0  0  0  0  0  0  0  0
   -4.5491    2.1813   -3.2222 H   0  0  0  0  0  0  0  0  0  0  0  0
   -3.2093   -5.4727   -0.6081 H   0  0  0  0  0  0  0  0  0  0  0  0
    0.4503   -4.9513    4.2616 H   0  0  0  0  0  0  0  0  0  0  0  0
   -0.9054   -5.2982    3.1981 H   0  0  0  0  0  0  0  0  0  0  0  0
   -0.9060   -3.8128    4.1981 H   0  0  0  0  0  0  0  0  0  0  0  0
  1  2  1  0  0  0  0
  1 29  1  0  0  0  0
  1 30  1  0  0  0  0
  1 31  1  0  0  0  0
  2  3  2  0  0  0  0
  2  7  1  0  0  0  0
  3  4  1  0  0  0  0
  3 32  1  0  0  0  0
  4  5  2  0  0  0  0
  4 28  1  0  0  0  0
  5  6  1  0  0  0  0
  5  8  1  0  0  0  0
  6  7  2  0  0  0  0
  6 33  1  0  0  0  0
  7 34  1  0  0  0  0
  8  9  1  0  0  0  0
  8 35  1  0  0  0  0
  9 10  1  0  0  0  0
  9 36  1  0  0  0  0
  9 37  1  0  0  0  0
 10 11  1  0  0  0  0
 10 27  1  0  0  0  0
 10 38  1  0  0  0  0
 11 12  1  0  0  0  0
 11 39  1  0  0  0  0
 11 40  1  0  0  0  0
 12 13  1  0  0  0  0
 12 21  1  0  0  0  0
 13 14  2  0  0  0  0
 13 18  1  0  0  0  0
 14 15  1  0  0  0  0
 14 20  1  0  0  0  0
 15 16  2  0  0  0  0
 15 41  1  0  0  0  0
 16 17  1  0  0  0  0
 16 19  1  0  0  0  0
 17 18  2  0  0  0  0
 17 42  1  0  0  0  0
 18 43  1  0  0  0  0
 20 21  2  0  0  0  0
 20 25  1  0  0  0  0
 21 22  1  0  0  0  0
 22 23  2  0  0  0  0
 22 44  1  0  0  0  0
 23 24  1  0  0  0  0
 23 45  1  0  0  0  0
 24 25  2  0  0  0  0
 24 26  1  0  0  0  0
 25 46  1  0  0  0  0
 27 47  1  0  0  0  0
 28 48  1  0  0  0  0
 28 49  1  0  0  0  0
 28 50  1  0  0  0  0
M  END
$$$$
Target_lig_739
 OpenBabel04172506213D

 44 47  0  0  1  0  0  0  0  0999 V2000
   -0.8629   -2.3618    2.3416 C   0  0  0  0  0  0  0  0  0  0  0  0
   -1.0367   -1.9350    1.0322 C   0  0  0  0  0  0  0  0  0  0  0  0
   -2.3177   -1.7503    0.5004 C   0  0  0  0  0  0  0  0  0  0  0  0
   -3.4537   -1.9212    1.3008 C   0  0  0  0  0  0  0  0  0  0  0  0
   -3.2671   -2.3641    2.6196 C   0  0  0  0  0  0  0  0  0  0  0  0
   -1.9875   -2.5784    3.1382 C   0  0  0  0  0  0  0  0  0  0  0  0
   -4.7622   -1.8353    0.8230 N   0  0  0  0  0  0  0  0  0  0  0  0
   -5.0844   -1.4704   -0.5499 C   0  0  0  0  0  0  0  0  0  0  0  0
   -5.2190    0.0508   -0.7225 C   0  0  3  0  0  0  0  0  0  0  0  0
   -5.4409    0.3514   -2.2224 C   0  0  0  0  0  0  0  0  0  0  0  0
   -5.6243    1.7571   -2.5306 N   0  0  0  0  0  0  0  0  0  0  0  0
   -6.8558    2.3474   -2.7452 C   0  0  0  0  0  0  0  0  0  0  0  0
   -8.1461    1.8280   -2.9200 C   0  0  0  0  0  0  0  0  0  0  0  0
   -9.2138    2.7082   -2.7319 C   0  0  0  0  0  0  0  0  0  0  0  0
   -8.9916    4.0382   -2.3842 C   0  0  0  0  0  0  0  0  0  0  0  0
   -7.7039    4.5773   -2.4367 C   0  0  0  0  0  0  0  0  0  0  0  0
   -6.6243    3.7214   -2.7107 C   0  0  0  0  0  0  0  0  0  0  0  0
   -5.2534    3.8751   -3.0693 C   0  0  0  0  0  0  0  0  0  0  0  0
   -4.4875    4.9180   -3.6234 C   0  0  0  0  0  0  0  0  0  0  0  0
   -3.1000    4.7777   -3.6919 C   0  0  0  0  0  0  0  0  0  0  0  0
   -2.4746    3.6792   -3.1061 C   0  0  0  0  0  0  0  0  0  0  0  0
   -3.2225    2.6084   -2.5997 C   0  0  0  0  0  0  0  0  0  0  0  0
   -4.6224    2.6867   -2.7026 C   0  0  0  0  0  0  0  0  0  0  0  0
   -6.3106    0.5104    0.0762 O   0  0  0  0  0  0  0  0  0  0  0  0
    0.1275   -2.5161    2.7473 H   0  0  0  0  0  0  0  0  0  0  0  0
   -0.1688   -1.7671    0.4007 H   0  0  0  0  0  0  0  0  0  0  0  0
   -2.3991   -1.4117   -0.5304 H   0  0  0  0  0  0  0  0  0  0  0  0
   -4.1278   -2.5749    3.2480 H   0  0  0  0  0  0  0  0  0  0  0  0
   -1.8671   -2.9220    4.1626 H   0  0  0  0  0  0  0  0  0  0  0  0
   -5.3832   -1.4004    1.5065 H   0  0  0  0  0  0  0  0  0  0  0  0
   -6.0552   -1.9324   -0.7688 H   0  0  0  0  0  0  0  0  0  0  0  0
   -4.3790   -1.9052   -1.2648 H   0  0  0  0  0  0  0  0  0  0  0  0
   -4.3237    0.5669   -0.3694 H   0  0  0  0  0  0  0  0  0  0  0  0
   -6.3308   -0.1826   -2.5803 H   0  0  0  0  0  0  0  0  0  0  0  0
   -4.5967   -0.0047   -2.8209 H   0  0  0  0  0  0  0  0  0  0  0  0
   -8.3206    0.7885   -3.1702 H   0  0  0  0  0  0  0  0  0  0  0  0
  -10.2324    2.3398   -2.8222 H   0  0  0  0  0  0  0  0  0  0  0  0
   -9.8275    4.6734   -2.1068 H   0  0  0  0  0  0  0  0  0  0  0  0
   -7.5285    5.6249   -2.2195 H   0  0  0  0  0  0  0  0  0  0  0  0
   -4.9795    5.7838   -4.0560 H   0  0  0  0  0  0  0  0  0  0  0  0
   -2.5073    5.5441   -4.1846 H   0  0  0  0  0  0  0  0  0  0  0  0
   -1.3874    3.6434   -3.0662 H   0  0  0  0  0  0  0  0  0  0  0  0
   -2.7242    1.7499   -2.1612 H   0  0  0  0  0  0  0  0  0  0  0  0
   -7.1483    0.1980   -0.2969 H   0  0  0  0  0  0  0  0  0  0  0  0
  1  2  2  0  0  0  0
  1  6  1  0  0  0  0
  1 25  1  0  0  0  0
  2  3  1  0  0  0  0
  2 26  1  0  0  0  0
  3  4  2  0  0  0  0
  3 27  1  0  0  0  0
  4  5  1  0  0  0  0
  4  7  1  0  0  0  0
  5  6  2  0  0  0  0
  5 28  1  0  0  0  0
  6 29  1  0  0  0  0
  7  8  1  0  0  0  0
  7 30  1  0  0  0  0
  8  9  1  0  0  0  0
  8 31  1  0  0  0  0
  8 32  1  0  0  0  0
  9 10  1  0  0  0  0
  9 24  1  0  0  0  0
  9 33  1  0  0  0  0
 10 11  1  0  0  0  0
 10 34  1  0  0  0  0
 10 35  1  0  0  0  0
 11 12  1  0  0  0  0
 11 23  1  0  0  0  0
 12 13  2  0  0  0  0
 12 17  1  0  0  0  0
 13 14  1  0  0  0  0
 13 36  1  0  0  0  0
 14 15  2  0  0  0  0
 14 37  1  0  0  0  0
 15 16  1  0  0  0  0
 15 38  1  0  0  0  0
 16 17  2  0  0  0  0
 16 39  1  0  0  0  0
 17 18  1  0  0  0  0
 18 19  2  0  0  0  0
 18 23  1  0  0  0  0
 19 20  1  0  0  0  0
 19 40  1  0  0  0  0
 20 21  2  0  0  0  0
 20 41  1  0  0  0  0
 21 22  1  0  0  0  0
 21 42  1  0  0  0  0
 22 23  2  0  0  0  0
 22 43  1  0  0  0  0
 24 44  1  0  0  0  0
M  END
$$$$
Target_lig_740
 OpenBabel04172506213D

 51 54  0  0  1  0  0  0  0  0999 V2000
    5.2686    6.4346    6.6610 C   0  0  0  0  0  0  0  0  0  0  0  0
    6.0724    5.8917    5.4930 C   0  0  0  0  0  0  0  0  0  0  0  0
    5.9015    4.4768    5.4454 O   0  0  0  0  0  0  0  0  0  0  0  0
    6.5779    3.8074    4.4749 C   0  0  0  0  0  0  0  0  0  0  0  0
    7.4182    4.3793    3.5162 C   0  0  0  0  0  0  0  0  0  0  0  0
    8.0854    3.5722    2.5823 C   0  0  0  0  0  0  0  0  0  0  0  0
    7.8680    2.1880    2.5293 C   0  0  0  0  0  0  0  0  0  0  0  0
    7.0351    1.6332    3.5017 C   0  0  0  0  0  0  0  0  0  0  0  0
    6.3813    2.4399    4.4513 C   0  0  0  0  0  0  0  0  0  0  0  0
    8.5212    1.3357    1.6429 N   0  0  0  0  0  0  0  0  0  0  0  0
    9.4246    1.8148    0.6152 C   0  0  0  0  0  0  0  0  0  0  0  0
   10.8804    1.8804    1.1175 C   0  0  3  0  0  0  0  0  0  0  0  0
   11.3338    0.4884    1.6014 C   0  0  0  0  0  0  0  0  0  0  0  0
   12.7327    0.4219    1.9862 N   0  0  0  0  0  0  0  0  0  0  0  0
   13.7368    0.0100    1.1329 C   0  0  0  0  0  0  0  0  0  0  0  0
   14.9087    0.5154    1.6847 C   0  0  0  0  0  0  0  0  0  0  0  0
   15.9882    0.7749    0.8213 C   0  0  0  0  0  0  0  0  0  0  0  0
   15.8516    0.4083   -0.5221 C   0  0  0  0  0  0  0  0  0  0  0  0
   14.7943   -0.3922   -0.9499 C   0  0  0  0  0  0  0  0  0  0  0  0
   13.7083   -0.6296   -0.1106 C   0  0  0  0  0  0  0  0  0  0  0  0
   17.0557    1.0964   -1.8093 Br  0  0  0  0  0  0  0  0  0  0  0  0
   14.6505    0.6244    3.0814 C   0  0  0  0  0  0  0  0  0  0  0  0
   15.4368    0.6502    4.2500 C   0  0  0  0  0  0  0  0  0  0  0  0
   14.8338    0.9796    5.4679 C   0  0  0  0  0  0  0  0  0  0  0  0
   13.5049    1.3957    5.5042 C   0  0  0  0  0  0  0  0  0  0  0  0
   12.6934    1.3231    4.3664 C   0  0  0  0  0  0  0  0  0  0  0  0
   13.2704    0.8140    3.1946 C   0  0  0  0  0  0  0  0  0  0  0  0
   11.6934    2.3844    0.0444 O   0  0  0  0  0  0  0  0  0  0  0  0
    5.3642    7.5226    6.7236 H   0  0  0  0  0  0  0  0  0  0  0  0
    5.6151    5.9954    7.6026 H   0  0  0  0  0  0  0  0  0  0  0  0
    4.2086    6.1784    6.5572 H   0  0  0  0  0  0  0  0  0  0  0  0
    7.1267    6.1429    5.6458 H   0  0  0  0  0  0  0  0  0  0  0  0
    5.7044    6.3488    4.5674 H   0  0  0  0  0  0  0  0  0  0  0  0
    7.6101    5.4419    3.4891 H   0  0  0  0  0  0  0  0  0  0  0  0
    8.7537    4.0704    1.8880 H   0  0  0  0  0  0  0  0  0  0  0  0
    6.8843    0.5568    3.5370 H   0  0  0  0  0  0  0  0  0  0  0  0
    5.7539    1.9682    5.2001 H   0  0  0  0  0  0  0  0  0  0  0  0
    7.9265    0.5494    1.3615 H   0  0  0  0  0  0  0  0  0  0  0  0
    9.1118    2.7754    0.1820 H   0  0  0  0  0  0  0  0  0  0  0  0
    9.3885    1.1190   -0.2373 H   0  0  0  0  0  0  0  0  0  0  0  0
   10.9697    2.6025    1.9371 H   0  0  0  0  0  0  0  0  0  0  0  0
   11.1871   -0.2412    0.7972 H   0  0  0  0  0  0  0  0  0  0  0  0
   10.7481    0.1433    2.4583 H   0  0  0  0  0  0  0  0  0  0  0  0
   16.8320    1.3623    1.1682 H   0  0  0  0  0  0  0  0  0  0  0  0
   14.7642   -0.7736   -1.9668 H   0  0  0  0  0  0  0  0  0  0  0  0
   12.8500   -1.1980   -0.4497 H   0  0  0  0  0  0  0  0  0  0  0  0
   16.4829    0.3598    4.2158 H   0  0  0  0  0  0  0  0  0  0  0  0
   15.4151    0.9399    6.3860 H   0  0  0  0  0  0  0  0  0  0  0  0
   13.0823    1.7568    6.4391 H   0  0  0  0  0  0  0  0  0  0  0  0
   11.6536    1.6307    4.4064 H   0  0  0  0  0  0  0  0  0  0  0  0
   11.7640    1.7072   -0.6493 H   0  0  0  0  0  0  0  0  0  0  0  0
  1  2  1  0  0  0  0
  1 29  1  0  0  0  0
  1 30  1  0  0  0  0
  1 31  1  0  0  0  0
  2  3  1  0  0  0  0
  2 32  1  0  0  0  0
  2 33  1  0  0  0  0
  3  4  1  0  0  0  0
  4  5  2  0  0  0  0
  4  9  1  0  0  0  0
  5  6  1  0  0  0  0
  5 34  1  0  0  0  0
  6  7  2  0  0  0  0
  6 35  1  0  0  0  0
  7  8  1  0  0  0  0
  7 10  1  0  0  0  0
  8  9  2  0  0  0  0
  8 36  1  0  0  0  0
  9 37  1  0  0  0  0
 10 11  1  0  0  0  0
 10 38  1  0  0  0  0
 11 12  1  0  0  0  0
 11 39  1  0  0  0  0
 11 40  1  0  0  0  0
 12 13  1  0  0  0  0
 12 28  1  0  0  0  0
 12 41  1  0  0  0  0
 13 14  1  0  0  0  0
 13 42  1  0  0  0  0
 13 43  1  0  0  0  0
 14 15  1  0  0  0  0
 14 27  1  0  0  0  0
 15 16  2  0  0  0  0
 15 20  1  0  0  0  0
 16 17  1  0  0  0  0
 16 22  1  0  0  0  0
 17 18  2  0  0  0  0
 17 44  1  0  0  0  0
 18 19  1  0  0  0  0
 18 21  1  0  0  0  0
 19 20  2  0  0  0  0
 19 45  1  0  0  0  0
 20 46  1  0  0  0  0
 22 23  2  0  0  0  0
 22 27  1  0  0  0  0
 23 24  1  0  0  0  0
 23 47  1  0  0  0  0
 24 25  2  0  0  0  0
 24 48  1  0  0  0  0
 25 26  1  0  0  0  0
 25 49  1  0  0  0  0
 26 27  2  0  0  0  0
 26 50  1  0  0  0  0
 28 51  1  0  0  0  0
M  END
$$$$
Target_lig_741
 OpenBabel04172506213D

 57 61  0  0  1  0  0  0  0  0999 V2000
    2.7442   -1.1449    0.9608 O   0  0  0  0  0  0  0  0  0  0  0  0
    2.4152   -0.1045    0.0310 C   0  0  3  0  0  0  0  0  0  0  0  0
    0.8932    0.0114   -0.1303 C   0  0  0  0  0  0  0  0  0  0  0  0
    0.3007   -1.2002   -0.6734 N   0  0  0  0  0  0  0  0  0  0  0  0
   -0.1758   -2.2479    0.0960 C   0  0  0  0  0  0  0  0  0  0  0  0
   -0.2131   -2.4288    1.4897 C   0  0  0  0  0  0  0  0  0  0  0  0
   -0.7487   -3.6203    1.9850 C   0  0  0  0  0  0  0  0  0  0  0  0
   -1.2308   -4.5926    1.1169 C   0  0  0  0  0  0  0  0  0  0  0  0
   -1.1848   -4.4096   -0.2693 C   0  0  0  0  0  0  0  0  0  0  0  0
   -0.6428   -3.2165   -0.7911 C   0  0  0  0  0  0  0  0  0  0  0  0
   -0.4303   -2.7269   -2.1178 C   0  0  0  0  0  0  0  0  0  0  0  0
    0.1590   -1.4660   -2.0181 C   0  0  0  0  0  0  0  0  0  0  0  0
    0.5047   -0.7120   -3.1526 C   0  0  0  0  0  0  0  0  0  0  0  0
    0.2429   -1.2590   -4.4112 C   0  0  0  0  0  0  0  0  0  0  0  0
   -0.3422   -2.5149   -4.5372 C   0  0  0  0  0  0  0  0  0  0  0  0
   -0.6829   -3.2562   -3.4014 C   0  0  0  0  0  0  0  0  0  0  0  0
   -1.9560   -6.1927    1.8194 Br  0  0  0  0  0  0  0  0  0  0  0  0
    2.9242    1.2336    0.5861 C   0  0  0  0  0  0  0  0  0  0  0  0
    4.3799    1.2629    0.7404 N   0  0  0  0  0  0  0  0  0  0  0  0
    4.9315    2.4442    1.2504 C   0  0  0  0  0  0  0  0  0  0  0  0
    4.2444    3.2763    2.1360 C   0  0  0  0  0  0  0  0  0  0  0  0
    4.8339    4.4274    2.6596 C   0  0  0  0  0  0  0  0  0  0  0  0
    6.1495    4.7796    2.3580 C   0  0  0  0  0  0  0  0  0  0  0  0
    6.8552    3.9146    1.5147 C   0  0  0  0  0  0  0  0  0  0  0  0
    6.2630    2.7600    0.9799 C   0  0  0  0  0  0  0  0  0  0  0  0
    6.7212    5.8909    2.9351 N   0  0  0  0  0  0  0  0  0  0  0  0
    8.1638    6.0099    3.1706 C   0  0  0  0  0  0  0  0  0  0  0  0
    8.3866    6.6822    4.5376 C   0  0  0  0  0  0  0  0  0  0  0  0
    7.6988    7.9422    4.6422 O   0  0  0  0  0  0  0  0  0  0  0  0
    6.2846    7.7594    4.4456 C   0  0  0  0  0  0  0  0  0  0  0  0
    5.9907    7.1602    3.0635 C   0  0  0  0  0  0  0  0  0  0  0  0
    2.5320   -1.9982    0.5408 H   0  0  0  0  0  0  0  0  0  0  0  0
    2.9055   -0.3360   -0.9216 H   0  0  0  0  0  0  0  0  0  0  0  0
    0.6271    0.8403   -0.7958 H   0  0  0  0  0  0  0  0  0  0  0  0
    0.4067    0.2122    0.8312 H   0  0  0  0  0  0  0  0  0  0  0  0
    0.1731   -1.6817    2.1755 H   0  0  0  0  0  0  0  0  0  0  0  0
   -0.7789   -3.7766    3.0613 H   0  0  0  0  0  0  0  0  0  0  0  0
   -1.5568   -5.1766   -0.9419 H   0  0  0  0  0  0  0  0  0  0  0  0
    0.9615    0.2690   -3.0725 H   0  0  0  0  0  0  0  0  0  0  0  0
    0.5004   -0.6946   -5.3049 H   0  0  0  0  0  0  0  0  0  0  0  0
   -0.5364   -2.9252   -5.5245 H   0  0  0  0  0  0  0  0  0  0  0  0
   -1.1376   -4.2371   -3.5099 H   0  0  0  0  0  0  0  0  0  0  0  0
    2.4485    1.3735    1.5628 H   0  0  0  0  0  0  0  0  0  0  0  0
    2.6175    2.0499   -0.0805 H   0  0  0  0  0  0  0  0  0  0  0  0
    4.8922    0.8941   -0.0550 H   0  0  0  0  0  0  0  0  0  0  0  0
    3.2407    3.0445    2.4715 H   0  0  0  0  0  0  0  0  0  0  0  0
    4.2526    5.0141    3.3651 H   0  0  0  0  0  0  0  0  0  0  0  0
    7.8844    4.1296    1.2417 H   0  0  0  0  0  0  0  0  0  0  0  0
    6.8632    2.1145    0.3440 H   0  0  0  0  0  0  0  0  0  0  0  0
    8.6064    6.6164    2.3727 H   0  0  0  0  0  0  0  0  0  0  0  0
    8.6637    5.0350    3.1865 H   0  0  0  0  0  0  0  0  0  0  0  0
    9.4536    6.8714    4.6868 H   0  0  0  0  0  0  0  0  0  0  0  0
    8.0461    6.0275    5.3496 H   0  0  0  0  0  0  0  0  0  0  0  0
    5.8056    8.7386    4.5388 H   0  0  0  0  0  0  0  0  0  0  0  0
    5.8923    7.1152    5.2422 H   0  0  0  0  0  0  0  0  0  0  0  0
    6.3495    7.8431    2.2833 H   0  0  0  0  0  0  0  0  0  0  0  0
    4.9088    7.0593    2.9289 H   0  0  0  0  0  0  0  0  0  0  0  0
  1  2  1  0  0  0  0
  1 32  1  0  0  0  0
  2  3  1  0  0  0  0
  2 18  1  0  0  0  0
  2 33  1  0  0  0  0
  3  4  1  0  0  0  0
  3 34  1  0  0  0  0
  3 35  1  0  0  0  0
  4  5  1  0  0  0  0
  4 12  1  0  0  0  0
  5  6  1  0  0  0  0
  5 10  2  0  0  0  0
  6  7  2  0  0  0  0
  6 36  1  0  0  0  0
  7  8  1  0  0  0  0
  7 37  1  0  0  0  0
  8  9  2  0  0  0  0
  8 17  1  0  0  0  0
  9 10  1  0  0  0  0
  9 38  1  0  0  0  0
 10 11  1  0  0  0  0
 11 12  1  0  0  0  0
 11 16  2  0  0  0  0
 12 13  2  0  0  0  0
 13 14  1  0  0  0  0
 13 39  1  0  0  0  0
 14 15  2  0  0  0  0
 14 40  1  0  0  0  0
 15 16  1  0  0  0  0
 15 41  1  0  0  0  0
 16 42  1  0  0  0  0
 18 19  1  0  0  0  0
 18 43  1  0  0  0  0
 18 44  1  0  0  0  0
 19 20  1  0  0  0  0
 19 45  1  0  0  0  0
 20 21  1  0  0  0  0
 20 25  2  0  0  0  0
 21 22  2  0  0  0  0
 21 46  1  0  0  0  0
 22 23  1  0  0  0  0
 22 47  1  0  0  0  0
 23 24  2  0  0  0  0
 23 26  1  0  0  0  0
 24 25  1  0  0  0  0
 24 48  1  0  0  0  0
 25 49  1  0  0  0  0
 26 27  1  0  0  0  0
 26 31  1  0  0  0  0
 27 28  1  0  0  0  0
 27 50  1  0  0  0  0
 27 51  1  0  0  0  0
 28 29  1  0  0  0  0
 28 52  1  0  0  0  0
 28 53  1  0  0  0  0
 29 30  1  0  0  0  0
 30 31  1  0  0  0  0
 30 54  1  0  0  0  0
 30 55  1  0  0  0  0
 31 56  1  0  0  0  0
 31 57  1  0  0  0  0
M  END
$$$$
Target_lig_742
 OpenBabel04172506213D

 51 54  0  0  1  0  0  0  0  0999 V2000
    6.0634    0.3418   -9.9355 C   0  0  0  0  0  0  0  0  0  0  0  0
    6.6814   -0.0585   -8.6125 C   0  0  0  0  0  0  0  0  0  0  0  0
    6.3501    0.9299   -7.6355 O   0  0  0  0  0  0  0  0  0  0  0  0
    6.8800    0.7377   -6.3902 C   0  0  0  0  0  0  0  0  0  0  0  0
    7.6846   -0.3295   -6.0109 C   0  0  0  0  0  0  0  0  0  0  0  0
    8.1783   -0.4162   -4.7086 C   0  0  0  0  0  0  0  0  0  0  0  0
    7.8580    0.5436   -3.7431 C   0  0  0  0  0  0  0  0  0  0  0  0
    7.0552    1.6169   -4.1383 C   0  0  0  0  0  0  0  0  0  0  0  0
    6.5742    1.7197   -5.4506 C   0  0  0  0  0  0  0  0  0  0  0  0
    8.3679    0.5204   -2.4516 N   0  0  0  0  0  0  0  0  0  0  0  0
    9.3086   -0.5024   -2.0057 C   0  0  0  0  0  0  0  0  0  0  0  0
   10.7608   -0.1310   -2.3643 C   0  0  3  0  0  0  0  0  0  0  0  0
   11.0706    1.2108   -1.7034 C   0  0  0  0  0  0  0  0  0  0  0  0
   12.4402    1.7271   -1.7542 N   0  0  0  0  0  0  0  0  0  0  0  0
   13.1307    1.8000   -0.5469 C   0  0  0  0  0  0  0  0  0  0  0  0
   13.2918    0.8344    0.4543 C   0  0  0  0  0  0  0  0  0  0  0  0
   13.3670    1.3111    1.7608 C   0  0  0  0  0  0  0  0  0  0  0  0
   13.3359    0.0654    3.1857 Br  0  0  0  0  0  0  0  0  0  0  0  0
   13.3633    2.6778    2.0386 C   0  0  0  0  0  0  0  0  0  0  0  0
   13.4083    3.6161    0.9968 C   0  0  0  0  0  0  0  0  0  0  0  0
   13.3019    3.1645   -0.3307 C   0  0  0  0  0  0  0  0  0  0  0  0
   13.2931    3.7813   -1.6199 C   0  0  0  0  0  0  0  0  0  0  0  0
   12.7580    2.8476   -2.5153 C   0  0  0  0  0  0  0  0  0  0  0  0
   12.4713    3.1690   -3.8523 C   0  0  0  0  0  0  0  0  0  0  0  0
   12.7967    4.4584   -4.2878 C   0  0  0  0  0  0  0  0  0  0  0  0
   12.3889    4.9654   -6.0666 Br  0  0  0  0  0  0  0  0  0  0  0  0
   13.3783    5.3920   -3.4338 C   0  0  0  0  0  0  0  0  0  0  0  0
   13.6133    5.0702   -2.0922 C   0  0  0  0  0  0  0  0  0  0  0  0
   11.6403   -1.1662   -1.9109 O   0  0  0  0  0  0  0  0  0  0  0  0
    6.2705   -0.4132  -10.6990 H   0  0  0  0  0  0  0  0  0  0  0  0
    6.4670    1.3026  -10.2707 H   0  0  0  0  0  0  0  0  0  0  0  0
    4.9797    0.4626   -9.8377 H   0  0  0  0  0  0  0  0  0  0  0  0
    7.7691   -0.1171   -8.7362 H   0  0  0  0  0  0  0  0  0  0  0  0
    6.2819   -1.0345   -8.3106 H   0  0  0  0  0  0  0  0  0  0  0  0
    7.9556   -1.1203   -6.7021 H   0  0  0  0  0  0  0  0  0  0  0  0
    8.8217   -1.2555   -4.4792 H   0  0  0  0  0  0  0  0  0  0  0  0
    6.8227    2.4146   -3.4315 H   0  0  0  0  0  0  0  0  0  0  0  0
    5.9651    2.5727   -5.7337 H   0  0  0  0  0  0  0  0  0  0  0  0
    7.7071    0.8499   -1.7522 H   0  0  0  0  0  0  0  0  0  0  0  0
    9.0488   -1.5045   -2.3601 H   0  0  0  0  0  0  0  0  0  0  0  0
    9.2282   -0.5780   -0.9115 H   0  0  0  0  0  0  0  0  0  0  0  0
   10.9001   -0.0470   -3.4535 H   0  0  0  0  0  0  0  0  0  0  0  0
   10.8201    1.1293   -0.6354 H   0  0  0  0  0  0  0  0  0  0  0  0
   10.4263    2.0044   -2.0978 H   0  0  0  0  0  0  0  0  0  0  0  0
   13.2297   -0.2241    0.2301 H   0  0  0  0  0  0  0  0  0  0  0  0
   13.3152    3.0295    3.0655 H   0  0  0  0  0  0  0  0  0  0  0  0
   13.4128    4.6806    1.2147 H   0  0  0  0  0  0  0  0  0  0  0  0
   11.9935    2.4529   -4.5139 H   0  0  0  0  0  0  0  0  0  0  0  0
   13.6345    6.3861   -3.7919 H   0  0  0  0  0  0  0  0  0  0  0  0
   14.0468    5.8067   -1.4222 H   0  0  0  0  0  0  0  0  0  0  0  0
   11.5265   -1.2682   -0.9503 H   0  0  0  0  0  0  0  0  0  0  0  0
  1  2  1  0  0  0  0
  1 30  1  0  0  0  0
  1 31  1  0  0  0  0
  1 32  1  0  0  0  0
  2  3  1  0  0  0  0
  2 33  1  0  0  0  0
  2 34  1  0  0  0  0
  3  4  1  0  0  0  0
  4  5  1  0  0  0  0
  4  9  2  0  0  0  0
  5  6  2  0  0  0  0
  5 35  1  0  0  0  0
  6  7  1  0  0  0  0
  6 36  1  0  0  0  0
  7  8  2  0  0  0  0
  7 10  1  0  0  0  0
  8  9  1  0  0  0  0
  8 37  1  0  0  0  0
  9 38  1  0  0  0  0
 10 11  1  0  0  0  0
 10 39  1  0  0  0  0
 11 12  1  0  0  0  0
 11 40  1  0  0  0  0
 11 41  1  0  0  0  0
 12 13  1  0  0  0  0
 12 29  1  0  0  0  0
 12 42  1  0  0  0  0
 13 14  1  0  0  0  0
 13 43  1  0  0  0  0
 13 44  1  0  0  0  0
 14 15  1  0  0  0  0
 14 23  1  0  0  0  0
 15 16  1  0  0  0  0
 15 21  2  0  0  0  0
 16 17  2  0  0  0  0
 16 45  1  0  0  0  0
 17 18  1  0  0  0  0
 17 19  1  0  0  0  0
 19 20  2  0  0  0  0
 19 46  1  0  0  0  0
 20 21  1  0  0  0  0
 20 47  1  0  0  0  0
 21 22  1  0  0  0  0
 22 23  1  0  0  0  0
 22 28  2  0  0  0  0
 23 24  2  0  0  0  0
 24 25  1  0  0  0  0
 24 48  1  0  0  0  0
 25 26  1  0  0  0  0
 25 27  2  0  0  0  0
 27 28  1  0  0  0  0
 27 49  1  0  0  0  0
 28 50  1  0  0  0  0
 29 51  1  0  0  0  0
M  END
$$$$
Target_lig_743
 OpenBabel04172506213D

 57 61  0  0  1  0  0  0  0  0999 V2000
    0.9115    0.2572    0.1003 O   0  0  0  0  0  0  0  0  0  0  0  0
    2.3229   -0.0062    0.0895 C   0  0  3  0  0  0  0  0  0  0  0  0
    2.9622    0.5484   -1.1874 C   0  0  0  0  0  0  0  0  0  0  0  0
    2.4429   -0.0860   -2.3930 N   0  0  0  0  0  0  0  0  0  0  0  0
    1.4106    0.4211   -3.1582 C   0  0  0  0  0  0  0  0  0  0  0  0
    0.6072    1.5635   -2.9878 C   0  0  0  0  0  0  0  0  0  0  0  0
   -0.3519    1.8392   -3.9659 C   0  0  0  0  0  0  0  0  0  0  0  0
   -1.4293    3.3850   -3.7896 Br  0  0  0  0  0  0  0  0  0  0  0  0
   -0.5243    1.0067   -5.0652 C   0  0  0  0  0  0  0  0  0  0  0  0
    0.2642   -0.1405   -5.2089 C   0  0  0  0  0  0  0  0  0  0  0  0
    1.2480   -0.4413   -4.2427 C   0  0  0  0  0  0  0  0  0  0  0  0
    2.1917   -1.5045   -4.0961 C   0  0  0  0  0  0  0  0  0  0  0  0
    2.9313   -1.2575   -2.9378 C   0  0  0  0  0  0  0  0  0  0  0  0
    3.9601   -2.1209   -2.5161 C   0  0  0  0  0  0  0  0  0  0  0  0
    4.2221   -3.2529   -3.2944 C   0  0  0  0  0  0  0  0  0  0  0  0
    5.5985   -4.4393   -2.7634 Br  0  0  0  0  0  0  0  0  0  0  0  0
    3.4954   -3.5256   -4.4476 C   0  0  0  0  0  0  0  0  0  0  0  0
    2.4794   -2.6567   -4.8585 C   0  0  0  0  0  0  0  0  0  0  0  0
    2.9053    0.6610    1.3456 C   0  0  0  0  0  0  0  0  0  0  0  0
    4.3463    0.4349    1.4992 N   0  0  0  0  0  0  0  0  0  0  0  0
    4.9423    1.0567    2.6141 C   0  0  0  0  0  0  0  0  0  0  0  0
    4.2879    1.2419    3.8304 C   0  0  0  0  0  0  0  0  0  0  0  0
    4.9384    1.8384    4.9156 C   0  0  0  0  0  0  0  0  0  0  0  0
    6.2779    2.2380    4.8475 C   0  0  0  0  0  0  0  0  0  0  0  0
    6.9435    1.9908    3.6430 C   0  0  0  0  0  0  0  0  0  0  0  0
    6.2955    1.3982    2.5517 C   0  0  0  0  0  0  0  0  0  0  0  0
    6.9053    2.7757    5.9457 N   0  0  0  0  0  0  0  0  0  0  0  0
    8.3538    2.6732    6.1586 C   0  0  0  0  0  0  0  0  0  0  0  0
    8.6024    2.4024    7.6514 C   0  0  0  0  0  0  0  0  0  0  0  0
    8.0108    3.4164    8.4838 O   0  0  0  0  0  0  0  0  0  0  0  0
    6.5883    3.4782    8.2661 C   0  0  0  0  0  0  0  0  0  0  0  0
    6.2534    3.7819    6.7988 C   0  0  0  0  0  0  0  0  0  0  0  0
    0.5019   -0.2963   -0.5877 H   0  0  0  0  0  0  0  0  0  0  0  0
    2.4582   -1.0922    0.1548 H   0  0  0  0  0  0  0  0  0  0  0  0
    4.0464    0.3994   -1.2013 H   0  0  0  0  0  0  0  0  0  0  0  0
    2.7891    1.6263   -1.2782 H   0  0  0  0  0  0  0  0  0  0  0  0
    0.7236    2.2141   -2.1268 H   0  0  0  0  0  0  0  0  0  0  0  0
   -1.2701    1.2361   -5.8212 H   0  0  0  0  0  0  0  0  0  0  0  0
    0.1223   -0.7919   -6.0676 H   0  0  0  0  0  0  0  0  0  0  0  0
    4.5359   -1.9213   -1.6179 H   0  0  0  0  0  0  0  0  0  0  0  0
    3.7077   -4.4112   -5.0410 H   0  0  0  0  0  0  0  0  0  0  0  0
    1.9144   -2.8708   -5.7614 H   0  0  0  0  0  0  0  0  0  0  0  0
    2.3581    0.2456    2.2005 H   0  0  0  0  0  0  0  0  0  0  0  0
    2.6888    1.7377    1.3224 H   0  0  0  0  0  0  0  0  0  0  0  0
    4.8832    0.6854    0.6734 H   0  0  0  0  0  0  0  0  0  0  0  0
    3.2650    0.9143    3.9814 H   0  0  0  0  0  0  0  0  0  0  0  0
    4.3844    1.9337    5.8457 H   0  0  0  0  0  0  0  0  0  0  0  0
    7.9855    2.2714    3.5216 H   0  0  0  0  0  0  0  0  0  0  0  0
    6.8696    1.2199    1.6462 H   0  0  0  0  0  0  0  0  0  0  0  0
    8.8273    3.6159    5.8588 H   0  0  0  0  0  0  0  0  0  0  0  0
    8.8036    1.8576    5.5839 H   0  0  0  0  0  0  0  0  0  0  0  0
    9.6774    2.3877    7.8526 H   0  0  0  0  0  0  0  0  0  0  0  0
    8.1935    1.4254    7.9390 H   0  0  0  0  0  0  0  0  0  0  0  0
    6.1891    4.2667    8.9113 H   0  0  0  0  0  0  0  0  0  0  0  0
    6.1390    2.5278    8.5793 H   0  0  0  0  0  0  0  0  0  0  0  0
    6.6506    4.7691    6.5293 H   0  0  0  0  0  0  0  0  0  0  0  0
    5.1676    3.8262    6.6704 H   0  0  0  0  0  0  0  0  0  0  0  0
  1  2  1  0  0  0  0
  1 33  1  0  0  0  0
  2  3  1  0  0  0  0
  2 19  1  0  0  0  0
  2 34  1  0  0  0  0
  3  4  1  0  0  0  0
  3 35  1  0  0  0  0
  3 36  1  0  0  0  0
  4  5  1  0  0  0  0
  4 13  1  0  0  0  0
  5  6  1  0  0  0  0
  5 11  2  0  0  0  0
  6  7  2  0  0  0  0
  6 37  1  0  0  0  0
  7  8  1  0  0  0  0
  7  9  1  0  0  0  0
  9 10  2  0  0  0  0
  9 38  1  0  0  0  0
 10 11  1  0  0  0  0
 10 39  1  0  0  0  0
 11 12  1  0  0  0  0
 12 13  1  0  0  0  0
 12 18  2  0  0  0  0
 13 14  2  0  0  0  0
 14 15  1  0  0  0  0
 14 40  1  0  0  0  0
 15 16  1  0  0  0  0
 15 17  2  0  0  0  0
 17 18  1  0  0  0  0
 17 41  1  0  0  0  0
 18 42  1  0  0  0  0
 19 20  1  0  0  0  0
 19 43  1  0  0  0  0
 19 44  1  0  0  0  0
 20 21  1  0  0  0  0
 20 45  1  0  0  0  0
 21 22  1  0  0  0  0
 21 26  2  0  0  0  0
 22 23  2  0  0  0  0
 22 46  1  0  0  0  0
 23 24  1  0  0  0  0
 23 47  1  0  0  0  0
 24 25  2  0  0  0  0
 24 27  1  0  0  0  0
 25 26  1  0  0  0  0
 25 48  1  0  0  0  0
 26 49  1  0  0  0  0
 27 28  1  0  0  0  0
 27 32  1  0  0  0  0
 28 29  1  0  0  0  0
 28 50  1  0  0  0  0
 28 51  1  0  0  0  0
 29 30  1  0  0  0  0
 29 52  1  0  0  0  0
 29 53  1  0  0  0  0
 30 31  1  0  0  0  0
 31 32  1  0  0  0  0
 31 54  1  0  0  0  0
 31 55  1  0  0  0  0
 32 56  1  0  0  0  0
 32 57  1  0  0  0  0
M  END
$$$$
Target_lig_744
 OpenBabel04172506213D

 47 50  0  0  1  0  0  0  0  0999 V2000
    2.8427    1.4251    0.4914 O   0  0  0  0  0  0  0  0  0  0  0  0
    2.4022    0.1559   -0.0187 C   0  0  3  0  0  0  0  0  0  0  0  0
    2.8578    0.0554   -1.4843 C   0  0  0  0  0  0  0  0  0  0  0  0
    2.5257   -1.1934   -2.1510 N   0  0  0  0  0  0  0  0  0  0  0  0
    3.4477   -2.1202   -2.6088 C   0  0  0  0  0  0  0  0  0  0  0  0
    4.8560   -2.1337   -2.5820 C   0  0  0  0  0  0  0  0  0  0  0  0
    5.5149   -3.2390   -3.1287 C   0  0  0  0  0  0  0  0  0  0  0  0
    7.4071   -3.2880   -3.1076 Br  0  0  0  0  0  0  0  0  0  0  0  0
    4.8120   -4.3014   -3.6864 C   0  0  0  0  0  0  0  0  0  0  0  0
    3.4146   -4.2781   -3.7066 C   0  0  0  0  0  0  0  0  0  0  0  0
    2.7183   -3.1783   -3.1628 C   0  0  0  0  0  0  0  0  0  0  0  0
    1.3305   -2.8657   -3.0275 C   0  0  0  0  0  0  0  0  0  0  0  0
    1.2348   -1.6211   -2.4020 C   0  0  0  0  0  0  0  0  0  0  0  0
   -0.0114   -1.0298   -2.1236 C   0  0  0  0  0  0  0  0  0  0  0  0
   -1.1660   -1.7364   -2.4678 C   0  0  0  0  0  0  0  0  0  0  0  0
   -2.8558   -0.9877   -2.0579 Br  0  0  0  0  0  0  0  0  0  0  0  0
   -1.0981   -2.9740   -3.0944 C   0  0  0  0  0  0  0  0  0  0  0  0
    0.1458   -3.5436   -3.3854 C   0  0  0  0  0  0  0  0  0  0  0  0
    3.0030   -0.9857    0.8244 C   0  0  0  0  0  0  0  0  0  0  0  0
    2.4890   -0.9852    2.2030 N   0  0  0  0  0  0  0  0  0  0  0  0
    2.9343   -2.0267    3.0449 C   0  0  0  0  0  0  0  0  0  0  0  0
    4.2211   -2.5746    2.9055 C   0  0  0  0  0  0  0  0  0  0  0  0
    4.7033   -3.5603    3.7650 C   0  0  0  0  0  0  0  0  0  0  0  0
    3.9172   -4.0016    4.8168 C   0  0  0  0  0  0  0  0  0  0  0  0
    2.6520   -3.4500    5.0079 C   0  0  0  0  0  0  0  0  0  0  0  0
    2.1507   -2.4602    4.1379 C   0  0  0  0  0  0  0  0  0  0  0  0
    0.7672   -1.9282    4.3946 C   0  0  0  0  0  0  0  0  0  0  0  0
    2.2830    2.1199    0.1054 H   0  0  0  0  0  0  0  0  0  0  0  0
    1.3127    0.1372    0.0708 H   0  0  0  0  0  0  0  0  0  0  0  0
    3.9399    0.2133   -1.5405 H   0  0  0  0  0  0  0  0  0  0  0  0
    2.4174    0.8654   -2.0791 H   0  0  0  0  0  0  0  0  0  0  0  0
    5.4247   -1.3139   -2.1532 H   0  0  0  0  0  0  0  0  0  0  0  0
    5.3379   -5.1544   -4.1073 H   0  0  0  0  0  0  0  0  0  0  0  0
    2.8658   -5.1120   -4.1404 H   0  0  0  0  0  0  0  0  0  0  0  0
   -0.0862   -0.0589   -1.6490 H   0  0  0  0  0  0  0  0  0  0  0  0
   -2.0045   -3.5095   -3.3635 H   0  0  0  0  0  0  0  0  0  0  0  0
    0.1956   -4.5109   -3.8784 H   0  0  0  0  0  0  0  0  0  0  0  0
    4.0886   -0.8480    0.8271 H   0  0  0  0  0  0  0  0  0  0  0  0
    2.7589   -1.9535    0.3725 H   0  0  0  0  0  0  0  0  0  0  0  0
    1.4841   -0.8598    2.2506 H   0  0  0  0  0  0  0  0  0  0  0  0
    4.8952   -2.2372    2.1232 H   0  0  0  0  0  0  0  0  0  0  0  0
    5.6978   -3.9713    3.6114 H   0  0  0  0  0  0  0  0  0  0  0  0
    4.2904   -4.7630    5.4963 H   0  0  0  0  0  0  0  0  0  0  0  0
    2.0541   -3.7953    5.8478 H   0  0  0  0  0  0  0  0  0  0  0  0
    0.3373   -2.3484    5.3104 H   0  0  0  0  0  0  0  0  0  0  0  0
    0.1011   -2.1989    3.5686 H   0  0  0  0  0  0  0  0  0  0  0  0
    0.7838   -0.8397    4.5129 H   0  0  0  0  0  0  0  0  0  0  0  0
  1  2  1  0  0  0  0
  1 28  1  0  0  0  0
  2  3  1  0  0  0  0
  2 19  1  0  0  0  0
  2 29  1  0  0  0  0
  3  4  1  0  0  0  0
  3 30  1  0  0  0  0
  3 31  1  0  0  0  0
  4  5  1  0  0  0  0
  4 13  1  0  0  0  0
  5  6  1  0  0  0  0
  5 11  2  0  0  0  0
  6  7  2  0  0  0  0
  6 32  1  0  0  0  0
  7  8  1  0  0  0  0
  7  9  1  0  0  0  0
  9 10  2  0  0  0  0
  9 33  1  0  0  0  0
 10 11  1  0  0  0  0
 10 34  1  0  0  0  0
 11 12  1  0  0  0  0
 12 13  1  0  0  0  0
 12 18  2  0  0  0  0
 13 14  2  0  0  0  0
 14 15  1  0  0  0  0
 14 35  1  0  0  0  0
 15 16  1  0  0  0  0
 15 17  2  0  0  0  0
 17 18  1  0  0  0  0
 17 36  1  0  0  0  0
 18 37  1  0  0  0  0
 19 20  1  0  0  0  0
 19 38  1  0  0  0  0
 19 39  1  0  0  0  0
 20 21  1  0  0  0  0
 20 40  1  0  0  0  0
 21 22  1  0  0  0  0
 21 26  2  0  0  0  0
 22 23  2  0  0  0  0
 22 41  1  0  0  0  0
 23 24  1  0  0  0  0
 23 42  1  0  0  0  0
 24 25  2  0  0  0  0
 24 43  1  0  0  0  0
 25 26  1  0  0  0  0
 25 44  1  0  0  0  0
 26 27  1  0  0  0  0
 27 45  1  0  0  0  0
 27 46  1  0  0  0  0
 27 47  1  0  0  0  0
M  END
$$$$
Target_lig_748
 OpenBabel04172506213D

 59 62  0  0  1  0  0  0  0  0999 V2000
    1.1322   -0.3003   -0.0676 O   0  0  0  0  0  0  0  0  0  0  0  0
    2.5600   -0.0885    0.0123 C   0  0  3  0  0  0  0  0  0  0  0  0
    2.7918    1.2192    0.8019 C   0  0  0  0  0  0  0  0  0  0  0  0
    4.2031    1.6833    0.8539 N   0  0  0  0  0  0  0  0  0  0  0  0
    5.0186    1.2105    1.9196 C   0  0  0  0  0  0  0  0  0  0  0  0
    6.3992    0.9995    1.7191 C   0  0  0  0  0  0  0  0  0  0  0  0
    7.2345    0.5123    2.7324 C   0  0  0  0  0  0  0  0  0  0  0  0
    6.6991    0.2085    3.9763 C   0  0  0  0  0  0  0  0  0  0  0  0
    5.3468    0.4161    4.2182 C   0  0  0  0  0  0  0  0  0  0  0  0
    4.5209    0.9196    3.2018 C   0  0  0  0  0  0  0  0  0  0  0  0
    7.8061   -0.4940    5.3360 Br  0  0  0  0  0  0  0  0  0  0  0  0
    4.6153    2.5802   -0.1680 C   0  0  0  0  0  0  0  0  0  0  0  0
    5.5909    3.5638    0.0944 C   0  0  0  0  0  0  0  0  0  0  0  0
    6.0772    4.4150   -0.9056 C   0  0  0  0  0  0  0  0  0  0  0  0
    5.5834    4.3083   -2.1992 C   0  0  0  0  0  0  0  0  0  0  0  0
    4.5886    3.3846   -2.4853 C   0  0  0  0  0  0  0  0  0  0  0  0
    4.1052    2.5432   -1.4764 C   0  0  0  0  0  0  0  0  0  0  0  0
    6.2670    5.4130   -3.5699 Br  0  0  0  0  0  0  0  0  0  0  0  0
    3.2081   -1.3088    0.6767 C   0  0  0  0  0  0  0  0  0  0  0  0
    2.9633   -2.5227   -0.1188 N   0  0  0  0  0  0  0  0  0  0  0  0
    3.4522   -3.7411    0.3790 C   0  0  0  0  0  0  0  0  0  0  0  0
    4.2955   -3.8477    1.4872 C   0  0  0  0  0  0  0  0  0  0  0  0
    4.7456   -5.0932    1.9449 C   0  0  0  0  0  0  0  0  0  0  0  0
    4.4144   -6.2801    1.2881 C   0  0  0  0  0  0  0  0  0  0  0  0
    3.6287   -6.1599    0.1355 C   0  0  0  0  0  0  0  0  0  0  0  0
    3.1544   -4.9172   -0.3129 C   0  0  0  0  0  0  0  0  0  0  0  0
    4.8132   -7.5151    1.7536 N   0  0  0  0  0  0  0  0  0  0  0  0
    5.0069   -7.8059    3.1812 C   0  0  0  0  0  0  0  0  0  0  0  0
    6.4765   -8.1370    3.4723 C   0  0  0  0  0  0  0  0  0  0  0  0
    6.9523   -9.1978    2.6261 O   0  0  0  0  0  0  0  0  0  0  0  0
    6.8473   -8.8119    1.2449 C   0  0  0  0  0  0  0  0  0  0  0  0
    5.3930   -8.5100    0.8400 C   0  0  0  0  0  0  0  0  0  0  0  0
    0.9261   -0.4979   -0.9980 H   0  0  0  0  0  0  0  0  0  0  0  0
    2.9288   -0.0118   -1.0131 H   0  0  0  0  0  0  0  0  0  0  0  0
    2.3523    1.1018    1.7980 H   0  0  0  0  0  0  0  0  0  0  0  0
    2.1606    2.0088    0.3689 H   0  0  0  0  0  0  0  0  0  0  0  0
    6.8459    1.1956    0.7466 H   0  0  0  0  0  0  0  0  0  0  0  0
    8.2925    0.3686    2.5304 H   0  0  0  0  0  0  0  0  0  0  0  0
    4.9202    0.1986    5.1944 H   0  0  0  0  0  0  0  0  0  0  0  0
    3.4837    1.1037    3.4629 H   0  0  0  0  0  0  0  0  0  0  0  0
    5.9854    3.6833    1.1018 H   0  0  0  0  0  0  0  0  0  0  0  0
    6.8422    5.1461   -0.6600 H   0  0  0  0  0  0  0  0  0  0  0  0
    4.1883    3.2932   -3.4936 H   0  0  0  0  0  0  0  0  0  0  0  0
    3.3349    1.8410   -1.7695 H   0  0  0  0  0  0  0  0  0  0  0  0
    2.7827   -1.4380    1.6792 H   0  0  0  0  0  0  0  0  0  0  0  0
    4.2881   -1.1497    0.7419 H   0  0  0  0  0  0  0  0  0  0  0  0
    1.9782   -2.6210   -0.3637 H   0  0  0  0  0  0  0  0  0  0  0  0
    4.6112   -2.9723    2.0437 H   0  0  0  0  0  0  0  0  0  0  0  0
    5.3869   -5.1054    2.8205 H   0  0  0  0  0  0  0  0  0  0  0  0
    3.3338   -7.0502   -0.4150 H   0  0  0  0  0  0  0  0  0  0  0  0
    2.5456   -4.8838   -1.2120 H   0  0  0  0  0  0  0  0  0  0  0  0
    4.3936   -8.6835    3.4203 H   0  0  0  0  0  0  0  0  0  0  0  0
    4.6600   -6.9981    3.8346 H   0  0  0  0  0  0  0  0  0  0  0  0
    6.5811   -8.4714    4.5095 H   0  0  0  0  0  0  0  0  0  0  0  0
    7.1174   -7.2584    3.3377 H   0  0  0  0  0  0  0  0  0  0  0  0
    7.2346   -9.6386    0.6412 H   0  0  0  0  0  0  0  0  0  0  0  0
    7.4924   -7.9419    1.0723 H   0  0  0  0  0  0  0  0  0  0  0  0
    4.7959   -9.4261    0.9138 H   0  0  0  0  0  0  0  0  0  0  0  0
    5.3808   -8.1852   -0.2062 H   0  0  0  0  0  0  0  0  0  0  0  0
  1  2  1  0  0  0  0
  1 33  1  0  0  0  0
  2  3  1  0  0  0  0
  2 19  1  0  0  0  0
  2 34  1  0  0  0  0
  3  4  1  0  0  0  0
  3 35  1  0  0  0  0
  3 36  1  0  0  0  0
  4  5  1  0  0  0  0
  4 12  1  0  0  0  0
  5  6  1  0  0  0  0
  5 10  2  0  0  0  0
  6  7  2  0  0  0  0
  6 37  1  0  0  0  0
  7  8  1  0  0  0  0
  7 38  1  0  0  0  0
  8  9  2  0  0  0  0
  8 11  1  0  0  0  0
  9 10  1  0  0  0  0
  9 39  1  0  0  0  0
 10 40  1  0  0  0  0
 12 13  1  0  0  0  0
 12 17  2  0  0  0  0
 13 14  2  0  0  0  0
 13 41  1  0  0  0  0
 14 15  1  0  0  0  0
 14 42  1  0  0  0  0
 15 16  2  0  0  0  0
 15 18  1  0  0  0  0
 16 17  1  0  0  0  0
 16 43  1  0  0  0  0
 17 44  1  0  0  0  0
 19 20  1  0  0  0  0
 19 45  1  0  0  0  0
 19 46  1  0  0  0  0
 20 21  1  0  0  0  0
 20 47  1  0  0  0  0
 21 22  1  0  0  0  0
 21 26  2  0  0  0  0
 22 23  2  0  0  0  0
 22 48  1  0  0  0  0
 23 24  1  0  0  0  0
 23 49  1  0  0  0  0
 24 25  2  0  0  0  0
 24 27  1  0  0  0  0
 25 26  1  0  0  0  0
 25 50  1  0  0  0  0
 26 51  1  0  0  0  0
 27 28  1  0  0  0  0
 27 32  1  0  0  0  0
 28 29  1  0  0  0  0
 28 52  1  0  0  0  0
 28 53  1  0  0  0  0
 29 30  1  0  0  0  0
 29 54  1  0  0  0  0
 29 55  1  0  0  0  0
 30 31  1  0  0  0  0
 31 32  1  0  0  0  0
 31 56  1  0  0  0  0
 31 57  1  0  0  0  0
 32 58  1  0  0  0  0
 32 59  1  0  0  0  0
M  END
$$$$
Target_lig_749
 OpenBabel04172506213D

 49 51  0  0  1  0  0  0  0  0999 V2000
    2.8255   -1.2940    0.3420 O   0  0  0  0  0  0  0  0  0  0  0  0
    2.4344    0.0726    0.0971 C   0  0  3  0  0  0  0  0  0  0  0  0
    2.7922    0.8789    1.3743 C   0  0  0  0  0  0  0  0  0  0  0  0
    2.2405    2.2622    1.4120 N   0  0  0  0  0  0  0  0  0  0  0  0
    3.2179    3.3020    1.4441 C   0  0  0  0  0  0  0  0  0  0  0  0
    3.0225    4.5067    0.7424 C   0  0  0  0  0  0  0  0  0  0  0  0
    3.9194    5.5788    0.8467 C   0  0  0  0  0  0  0  0  0  0  0  0
    5.0739    5.4392    1.6063 C   0  0  0  0  0  0  0  0  0  0  0  0
    5.3252    4.2479    2.2750 C   0  0  0  0  0  0  0  0  0  0  0  0
    4.3967    3.1996    2.2068 C   0  0  0  0  0  0  0  0  0  0  0  0
    6.2997    6.8713    1.7355 Br  0  0  0  0  0  0  0  0  0  0  0  0
    0.8479    2.4132    1.6907 C   0  0  0  0  0  0  0  0  0  0  0  0
   -0.0434    1.3249    1.7637 C   0  0  0  0  0  0  0  0  0  0  0  0
   -1.4207    1.4889    1.9778 C   0  0  0  0  0  0  0  0  0  0  0  0
   -1.9471    2.7589    2.1525 C   0  0  0  0  0  0  0  0  0  0  0  0
   -1.1034    3.8569    2.1431 C   0  0  0  0  0  0  0  0  0  0  0  0
    0.2719    3.6762    1.9364 C   0  0  0  0  0  0  0  0  0  0  0  0
   -3.7987    2.9880    2.4351 Br  0  0  0  0  0  0  0  0  0  0  0  0
    3.1756    0.6433   -1.1275 C   0  0  0  0  0  0  0  0  0  0  0  0
    2.8428   -0.0739   -2.3796 N   0  0  0  0  0  0  0  0  0  0  0  0
    3.4240    0.4789   -3.5585 C   0  0  0  0  0  0  0  0  0  0  0  0
    4.6789    1.1134   -3.5187 C   0  0  0  0  0  0  0  0  0  0  0  0
    5.2928    1.6379   -4.6594 C   0  0  0  0  0  0  0  0  0  0  0  0
    4.6726    1.5054   -5.8903 C   0  0  0  0  0  0  0  0  0  0  0  0
    3.4629    0.8310   -5.9742 C   0  0  0  0  0  0  0  0  0  0  0  0
    2.8303    0.3050   -4.8273 C   0  0  0  0  0  0  0  0  0  0  0  0
    1.5572   -0.4691   -5.0447 C   0  0  0  0  0  0  0  0  0  0  0  0
    2.5717   -1.8044   -0.4486 H   0  0  0  0  0  0  0  0  0  0  0  0
    1.3651    0.0522   -0.1063 H   0  0  0  0  0  0  0  0  0  0  0  0
    3.8897    0.8671    1.4281 H   0  0  0  0  0  0  0  0  0  0  0  0
    2.4887    0.3317    2.2749 H   0  0  0  0  0  0  0  0  0  0  0  0
    2.1444    4.6344    0.1127 H   0  0  0  0  0  0  0  0  0  0  0  0
    3.7002    6.5136    0.3373 H   0  0  0  0  0  0  0  0  0  0  0  0
    6.2272    4.1251    2.8696 H   0  0  0  0  0  0  0  0  0  0  0  0
    4.6027    2.3121    2.7995 H   0  0  0  0  0  0  0  0  0  0  0  0
    0.2956    0.2984    1.6757 H   0  0  0  0  0  0  0  0  0  0  0  0
   -2.0621    0.6123    2.0111 H   0  0  0  0  0  0  0  0  0  0  0  0
   -1.4897    4.8599    2.3021 H   0  0  0  0  0  0  0  0  0  0  0  0
    0.8799    4.5727    1.9942 H   0  0  0  0  0  0  0  0  0  0  0  0
    4.2473    0.5486   -0.9249 H   0  0  0  0  0  0  0  0  0  0  0  0
    2.9057    1.6987   -1.2459 H   0  0  0  0  0  0  0  0  0  0  0  0
    1.8288   -0.1494   -2.5130 H   0  0  0  0  0  0  0  0  0  0  0  0
    5.2443    1.2097   -2.5876 H   0  0  0  0  0  0  0  0  0  0  0  0
    6.2550    2.1402   -4.5760 H   0  0  0  0  0  0  0  0  0  0  0  0
    5.1410    1.9147   -6.7816 H   0  0  0  0  0  0  0  0  0  0  0  0
    3.0086    0.7047   -6.9567 H   0  0  0  0  0  0  0  0  0  0  0  0
    1.1123   -0.2261   -6.0179 H   0  0  0  0  0  0  0  0  0  0  0  0
    0.7982   -0.2267   -4.2958 H   0  0  0  0  0  0  0  0  0  0  0  0
    1.7637   -1.5437   -5.0309 H   0  0  0  0  0  0  0  0  0  0  0  0
  1  2  1  0  0  0  0
  1 28  1  0  0  0  0
  2  3  1  0  0  0  0
  2 19  1  0  0  0  0
  2 29  1  0  0  0  0
  3  4  1  0  0  0  0
  3 30  1  0  0  0  0
  3 31  1  0  0  0  0
  4  5  1  0  0  0  0
  4 12  1  0  0  0  0
  5  6  1  0  0  0  0
  5 10  2  0  0  0  0
  6  7  2  0  0  0  0
  6 32  1  0  0  0  0
  7  8  1  0  0  0  0
  7 33  1  0  0  0  0
  8  9  2  0  0  0  0
  8 11  1  0  0  0  0
  9 10  1  0  0  0  0
  9 34  1  0  0  0  0
 10 35  1  0  0  0  0
 12 13  1  0  0  0  0
 12 17  2  0  0  0  0
 13 14  2  0  0  0  0
 13 36  1  0  0  0  0
 14 15  1  0  0  0  0
 14 37  1  0  0  0  0
 15 16  2  0  0  0  0
 15 18  1  0  0  0  0
 16 17  1  0  0  0  0
 16 38  1  0  0  0  0
 17 39  1  0  0  0  0
 19 20  1  0  0  0  0
 19 40  1  0  0  0  0
 19 41  1  0  0  0  0
 20 21  1  0  0  0  0
 20 42  1  0  0  0  0
 21 22  1  0  0  0  0
 21 26  2  0  0  0  0
 22 23  2  0  0  0  0
 22 43  1  0  0  0  0
 23 24  1  0  0  0  0
 23 44  1  0  0  0  0
 24 25  2  0  0  0  0
 24 45  1  0  0  0  0
 25 26  1  0  0  0  0
 25 46  1  0  0  0  0
 26 27  1  0  0  0  0
 27 47  1  0  0  0  0
 27 48  1  0  0  0  0
 27 49  1  0  0  0  0
M  END
$$$$
Target_lig_750
 OpenBabel04172506213D

 48 50  0  0  0  0  0  0  0  0999 V2000
    2.8352   -3.7485   -6.1744 C   0  0  0  0  0  0  0  0  0  0  0  0
    3.9511   -3.0240   -5.6348 N   0  0  0  0  0  0  0  0  0  0  0  0
    4.2049   -2.9716   -4.2809 C   0  0  0  0  0  0  0  0  0  0  0  0
    3.5170   -3.5213   -3.4286 O   0  0  0  0  0  0  0  0  0  0  0  0
    5.4268   -2.1850   -3.9220 C   0  0  0  0  0  0  0  0  0  0  0  0
    6.0504   -1.5483   -4.9560 N   0  0  0  0  0  0  0  0  0  0  0  0
    7.1417   -0.8231   -4.6435 C   0  0  0  0  0  0  0  0  0  0  0  0
    7.6588   -0.7291   -3.3643 C   0  0  0  0  0  0  0  0  0  0  0  0
    7.0430   -1.4594   -2.3478 C   0  0  0  0  0  0  0  0  0  0  0  0
    5.8757   -2.1635   -2.6124 C   0  0  0  0  0  0  0  0  0  0  0  0
    7.5076   -1.5044   -1.0531 O   0  0  0  0  0  0  0  0  0  0  0  0
    8.8653   -1.5692   -0.8354 C   0  0  0  0  0  0  0  0  0  0  0  0
    9.3284   -0.9805    0.3340 C   0  0  0  0  0  0  0  0  0  0  0  0
   10.6947   -0.9617    0.6147 C   0  0  0  0  0  0  0  0  0  0  0  0
   11.6341   -1.5055   -0.2764 C   0  0  0  0  0  0  0  0  0  0  0  0
   11.1446   -2.1734   -1.4077 C   0  0  0  0  0  0  0  0  0  0  0  0
    9.7706   -2.2253   -1.6733 C   0  0  0  0  0  0  0  0  0  0  0  0
   13.0452   -1.4221   -0.1572 N   0  0  0  0  0  0  0  0  0  0  0  0
   13.7559   -0.6019    0.6994 C   0  0  0  0  0  0  0  0  0  0  0  0
   13.2831    0.1425    1.5541 O   0  0  0  0  0  0  0  0  0  0  0  0
   15.1224   -0.6449    0.4299 N   0  0  0  0  0  0  0  0  0  0  0  0
   16.0260    0.1047    1.2161 C   0  0  0  0  0  0  0  0  0  0  0  0
   16.9695    0.9104    0.5771 C   0  0  0  0  0  0  0  0  0  0  0  0
   17.8437    1.7299    1.3212 C   0  0  0  0  0  0  0  0  0  0  0  0
   17.7997    1.6678    2.7197 C   0  0  0  0  0  0  0  0  0  0  0  0
   16.8738    0.8403    3.3613 C   0  0  0  0  0  0  0  0  0  0  0  0
   15.9808    0.0732    2.6113 C   0  0  0  0  0  0  0  0  0  0  0  0
   18.8656    2.5921    3.7129 Cl  0  0  0  0  0  0  0  0  0  0  0  0
   18.7728    2.6712    0.6072 C   0  0  0  0  0  0  0  0  0  0  0  0
   18.6244    2.6287   -0.7508 F   0  0  0  0  0  0  0  0  0  0  0  0
   18.5829    3.9762    0.9444 F   0  0  0  0  0  0  0  0  0  0  0  0
   20.0875    2.3984    0.8304 F   0  0  0  0  0  0  0  0  0  0  0  0
   11.0386   -0.4533    1.8015 F   0  0  0  0  0  0  0  0  0  0  0  0
    2.8389   -3.6458   -7.2614 H   0  0  0  0  0  0  0  0  0  0  0  0
    1.9082   -3.3419   -5.7610 H   0  0  0  0  0  0  0  0  0  0  0  0
    2.9213   -4.8024   -5.8966 H   0  0  0  0  0  0  0  0  0  0  0  0
    4.6072   -2.5283   -6.2347 H   0  0  0  0  0  0  0  0  0  0  0  0
    7.6106   -0.3101   -5.4779 H   0  0  0  0  0  0  0  0  0  0  0  0
    8.5351   -0.1188   -3.1787 H   0  0  0  0  0  0  0  0  0  0  0  0
    5.3465   -2.6963   -1.8295 H   0  0  0  0  0  0  0  0  0  0  0  0
    8.6413   -0.5295    1.0431 H   0  0  0  0  0  0  0  0  0  0  0  0
   11.8214   -2.6440   -2.1165 H   0  0  0  0  0  0  0  0  0  0  0  0
    9.4251   -2.7630   -2.5526 H   0  0  0  0  0  0  0  0  0  0  0  0
   13.5911   -1.9589   -0.8146 H   0  0  0  0  0  0  0  0  0  0  0  0
   15.3412   -0.7167   -0.5526 H   0  0  0  0  0  0  0  0  0  0  0  0
   16.9848    0.9621   -0.5104 H   0  0  0  0  0  0  0  0  0  0  0  0
   16.8281    0.7978    4.4467 H   0  0  0  0  0  0  0  0  0  0  0  0
   15.2541   -0.5483    3.1280 H   0  0  0  0  0  0  0  0  0  0  0  0
  1  2  1  0  0  0  0
  1 34  1  0  0  0  0
  1 35  1  0  0  0  0
  1 36  1  0  0  0  0
  2  3  1  0  0  0  0
  2 37  1  0  0  0  0
  3  4  2  0  0  0  0
  3  5  1  0  0  0  0
  5  6  2  0  0  0  0
  5 10  1  0  0  0  0
  6  7  1  0  0  0  0
  7  8  2  0  0  0  0
  7 38  1  0  0  0  0
  8  9  1  0  0  0  0
  8 39  1  0  0  0  0
  9 10  2  0  0  0  0
  9 11  1  0  0  0  0
 10 40  1  0  0  0  0
 11 12  1  0  0  0  0
 12 13  2  0  0  0  0
 12 17  1  0  0  0  0
 13 14  1  0  0  0  0
 13 41  1  0  0  0  0
 14 15  2  0  0  0  0
 14 33  1  0  0  0  0
 15 16  1  0  0  0  0
 15 18  1  0  0  0  0
 16 17  2  0  0  0  0
 16 42  1  0  0  0  0
 17 43  1  0  0  0  0
 18 19  1  0  0  0  0
 18 44  1  0  0  0  0
 19 20  2  0  0  0  0
 19 21  1  0  0  0  0
 21 22  1  0  0  0  0
 21 45  1  0  0  0  0
 22 23  2  0  0  0  0
 22 27  1  0  0  0  0
 23 24  1  0  0  0  0
 23 46  1  0  0  0  0
 24 25  2  0  0  0  0
 24 29  1  0  0  0  0
 25 26  1  0  0  0  0
 25 28  1  0  0  0  0
 26 27  2  0  0  0  0
 26 47  1  0  0  0  0
 27 48  1  0  0  0  0
 29 30  1  0  0  0  0
 29 31  1  0  0  0  0
 29 32  1  0  0  0  0
M  END
$$$$
Target_lig_4
 OpenBabel04172506213D

 88 91  0  0  1  0  0  0  0  0999 V2000
    0.3261    1.6723   -0.2036 C   0  0  0  0  0  0  0  0  0  0  0  0
    1.3163    0.5887    0.2375 C   0  0  3  0  0  0  0  0  0  0  0  0
    0.7671   -0.8020   -0.1564 C   0  0  3  0  0  0  0  0  0  0  0  0
   -0.6281   -1.0899    0.4444 C   0  0  3  0  0  0  0  0  0  0  0  0
   -1.6071   -0.0108   -0.1454 C   0  0  3  0  0  0  0  0  0  0  0  0
   -1.1375    1.4329    0.2480 C   0  0  3  0  0  0  0  0  0  0  0  0
   -1.9599    2.4837   -0.3896 N   0  0  0  0  0  0  0  0  0  0  0  0
   -3.0175   -0.2598    0.1277 O   0  0  0  0  0  0  0  0  0  0  0  0
   -3.5098   -1.5291   -0.3418 C   0  0  3  0  0  0  0  0  0  0  0  0
   -3.4048   -1.7277   -1.8900 C   0  0  3  0  0  0  0  0  0  0  0  0
   -4.6651   -1.1983   -2.5890 C   0  0  3  0  0  0  0  0  0  0  0  0
   -5.9236   -1.8297   -1.9970 C   0  0  3  0  0  0  0  0  0  0  0  0
   -5.9640   -1.4695   -0.5008 C   0  0  3  0  0  0  0  0  0  0  0  0
   -4.7830   -1.9204    0.1918 O   0  0  0  0  0  0  0  0  0  0  0  0
   -7.2132   -2.1394    0.1251 C   0  0  0  0  0  0  0  0  0  0  0  0
   -7.4036   -1.7655    1.5356 N   0  0  0  0  0  0  0  0  0  0  0  0
   -5.9410   -3.2587   -2.1768 O   0  0  0  0  0  0  0  0  0  0  0  0
   -4.5786   -1.4690   -3.9961 O   0  0  0  0  0  0  0  0  0  0  0  0
   -3.1655   -3.1578   -2.2770 N   0  0  0  0  0  0  0  0  0  0  0  0
   -0.7022   -1.1260    1.8907 O   0  0  0  0  0  0  0  0  0  0  0  0
    0.0035   -2.2069    2.5252 C   0  0  3  0  0  0  0  0  0  0  0  0
   -0.5668   -3.6031    2.1911 C   0  0  3  0  0  0  0  0  0  0  0  0
   -0.8877   -4.2417    3.5503 C   0  0  3  0  0  0  0  0  0  0  0  0
    0.0303   -3.4645    4.4923 C   0  0  3  0  0  0  0  0  0  0  0  0
   -0.0237   -2.1098    3.9686 O   0  0  0  0  0  0  0  0  0  0  0  0
    1.4852   -3.9488    4.6619 C   0  0  0  0  0  0  0  0  0  0  0  0
    2.2967   -3.8981    3.4909 O   0  0  0  0  0  0  0  0  0  0  0  0
   -0.8287   -5.6678    3.4527 O   0  0  0  0  0  0  0  0  0  0  0  0
   -1.0123   -6.4119    4.6653 C   0  0  3  0  0  0  0  0  0  0  0  0
   -0.9083   -7.9398    4.3615 C   0  0  3  0  0  0  0  0  0  0  0  0
   -2.2232   -8.4388    3.7231 C   0  0  3  0  0  0  0  0  0  0  0  0
   -3.4715   -8.0326    4.5166 C   0  0  3  0  0  0  0  0  0  0  0  0
   -3.4335   -6.5165    4.7871 C   0  0  3  0  0  0  0  0  0  0  0  0
   -2.1945   -6.1121    5.4072 O   0  0  0  0  0  0  0  0  0  0  0  0
   -4.5915   -6.1161    5.7287 C   0  0  0  0  0  0  0  0  0  0  0  0
   -4.6224   -4.6695    5.9666 N   0  0  0  0  0  0  0  0  0  0  0  0
   -3.5843   -8.7893    5.7319 O   0  0  0  0  0  0  0  0  0  0  0  0
   -2.1774   -9.8618    3.5632 O   0  0  0  0  0  0  0  0  0  0  0  0
   -0.5519   -8.7541    5.5561 N   0  0  0  0  0  0  0  0  0  0  0  0
    0.4095   -4.3820    1.4729 O   0  0  0  0  0  0  0  0  0  0  0  0
    1.7213   -1.8252    0.1222 O   0  0  0  0  0  0  0  0  0  0  0  0
    1.6341    0.7324    1.6609 N   0  0  0  0  0  0  0  0  0  0  0  0
    0.3580    1.7128   -1.3039 H   0  0  0  0  0  0  0  0  0  0  0  0
    0.6771    2.6573    0.1335 H   0  0  0  0  0  0  0  0  0  0  0  0
    2.2613    0.7416   -0.3008 H   0  0  0  0  0  0  0  0  0  0  0  0
    0.6620   -0.8104   -1.2517 H   0  0  0  0  0  0  0  0  0  0  0  0
   -0.9200   -2.0755    0.0808 H   0  0  0  0  0  0  0  0  0  0  0  0
   -1.4981   -0.0305   -1.2328 H   0  0  0  0  0  0  0  0  0  0  0  0
   -1.2264    1.5632    1.3319 H   0  0  0  0  0  0  0  0  0  0  0  0
   -1.8195    2.4900   -1.3987 H   0  0  0  0  0  0  0  0  0  0  0  0
   -1.6337    3.3971   -0.0654 H   0  0  0  0  0  0  0  0  0  0  0  0
   -2.8650   -2.2715    0.1266 H   0  0  0  0  0  0  0  0  0  0  0  0
   -2.5637   -1.1880   -2.3264 H   0  0  0  0  0  0  0  0  0  0  0  0
   -4.7214   -0.1087   -2.4805 H   0  0  0  0  0  0  0  0  0  0  0  0
   -6.8104   -1.4554   -2.5184 H   0  0  0  0  0  0  0  0  0  0  0  0
   -6.0362   -0.3802   -0.3843 H   0  0  0  0  0  0  0  0  0  0  0  0
   -7.1212   -3.2298    0.0868 H   0  0  0  0  0  0  0  0  0  0  0  0
   -8.1103   -1.8512   -0.4269 H   0  0  0  0  0  0  0  0  0  0  0  0
   -6.5771   -2.0741    2.0520 H   0  0  0  0  0  0  0  0  0  0  0  0
   -8.1912   -2.2909    1.9125 H   0  0  0  0  0  0  0  0  0  0  0  0
   -5.0968   -3.5146   -2.5954 H   0  0  0  0  0  0  0  0  0  0  0  0
   -4.1546   -2.3456   -4.0764 H   0  0  0  0  0  0  0  0  0  0  0  0
   -3.4492   -3.7493   -1.4849 H   0  0  0  0  0  0  0  0  0  0  0  0
   -2.1556   -3.3057   -2.3465 H   0  0  0  0  0  0  0  0  0  0  0  0
    1.0582   -2.1204    2.2651 H   0  0  0  0  0  0  0  0  0  0  0  0
   -1.4620   -3.5690    1.5665 H   0  0  0  0  0  0  0  0  0  0  0  0
   -1.9201   -3.9600    3.7940 H   0  0  0  0  0  0  0  0  0  0  0  0
   -0.4139   -3.4459    5.4942 H   0  0  0  0  0  0  0  0  0  0  0  0
    1.5269   -4.9721    5.0425 H   0  0  0  0  0  0  0  0  0  0  0  0
    1.9873   -3.3156    5.4002 H   0  0  0  0  0  0  0  0  0  0  0  0
    1.8375   -4.3464    2.7585 H   0  0  0  0  0  0  0  0  0  0  0  0
   -0.1782   -6.1632    5.3251 H   0  0  0  0  0  0  0  0  0  0  0  0
   -0.1092   -8.1130    3.6294 H   0  0  0  0  0  0  0  0  0  0  0  0
   -2.3041   -8.0156    2.7148 H   0  0  0  0  0  0  0  0  0  0  0  0
   -4.3659   -8.2893    3.9379 H   0  0  0  0  0  0  0  0  0  0  0  0
   -3.5340   -5.9747    3.8388 H   0  0  0  0  0  0  0  0  0  0  0  0
   -4.4772   -6.6034    6.7058 H   0  0  0  0  0  0  0  0  0  0  0  0
   -5.5518   -6.4291    5.3044 H   0  0  0  0  0  0  0  0  0  0  0  0
   -3.7526   -4.4063    6.4333 H   0  0  0  0  0  0  0  0  0  0  0  0
   -5.3689   -4.4577    6.6296 H   0  0  0  0  0  0  0  0  0  0  0  0
   -2.9342   -8.4491    6.3660 H   0  0  0  0  0  0  0  0  0  0  0  0
   -1.9702  -10.2019    4.4586 H   0  0  0  0  0  0  0  0  0  0  0  0
   -0.9735   -8.3565    6.3935 H   0  0  0  0  0  0  0  0  0  0  0  0
    0.4550   -8.6776    5.7146 H   0  0  0  0  0  0  0  0  0  0  0  0
    0.1035   -5.3075    1.5528 H   0  0  0  0  0  0  0  0  0  0  0  0
    1.3450   -2.6879   -0.1341 H   0  0  0  0  0  0  0  0  0  0  0  0
    0.8376    0.4292    2.2282 H   0  0  0  0  0  0  0  0  0  0  0  0
    2.3747    0.0641    1.8894 H   0  0  0  0  0  0  0  0  0  0  0  0
  1  2  1  0  0  0  0
  1  6  1  0  0  0  0
  1 43  1  0  0  0  0
  1 44  1  0  0  0  0
  2  3  1  0  0  0  0
  2 42  1  0  0  0  0
  2 45  1  0  0  0  0
  3  4  1  0  0  0  0
  3 41  1  0  0  0  0
  3 46  1  0  0  0  0
  4  5  1  0  0  0  0
  4 20  1  0  0  0  0
  4 47  1  0  0  0  0
  5  6  1  0  0  0  0
  5  8  1  0  0  0  0
  5 48  1  0  0  0  0
  6  7  1  0  0  0  0
  6 49  1  0  0  0  0
  7 50  1  0  0  0  0
  7 51  1  0  0  0  0
  8  9  1  0  0  0  0
  9 10  1  0  0  0  0
  9 14  1  0  0  0  0
  9 52  1  0  0  0  0
 10 11  1  0  0  0  0
 10 19  1  0  0  0  0
 10 53  1  0  0  0  0
 11 12  1  0  0  0  0
 11 18  1  0  0  0  0
 11 54  1  0  0  0  0
 12 13  1  0  0  0  0
 12 17  1  0  0  0  0
 12 55  1  0  0  0  0
 13 14  1  0  0  0  0
 13 15  1  0  0  0  0
 13 56  1  0  0  0  0
 15 16  1  0  0  0  0
 15 57  1  0  0  0  0
 15 58  1  0  0  0  0
 16 59  1  0  0  0  0
 16 60  1  0  0  0  0
 17 61  1  0  0  0  0
 18 62  1  0  0  0  0
 19 63  1  0  0  0  0
 19 64  1  0  0  0  0
 20 21  1  0  0  0  0
 21 22  1  0  0  0  0
 21 25  1  0  0  0  0
 21 65  1  0  0  0  0
 22 23  1  0  0  0  0
 22 40  1  0  0  0  0
 22 66  1  0  0  0  0
 23 24  1  0  0  0  0
 23 28  1  0  0  0  0
 23 67  1  0  0  0  0
 24 25  1  0  0  0  0
 24 26  1  0  0  0  0
 24 68  1  0  0  0  0
 26 27  1  0  0  0  0
 26 69  1  0  0  0  0
 26 70  1  0  0  0  0
 27 71  1  0  0  0  0
 28 29  1  0  0  0  0
 29 30  1  0  0  0  0
 29 34  1  0  0  0  0
 29 72  1  0  0  0  0
 30 31  1  0  0  0  0
 30 39  1  0  0  0  0
 30 73  1  0  0  0  0
 31 32  1  0  0  0  0
 31 38  1  0  0  0  0
 31 74  1  0  0  0  0
 32 33  1  0  0  0  0
 32 37  1  0  0  0  0
 32 75  1  0  0  0  0
 33 34  1  0  0  0  0
 33 35  1  0  0  0  0
 33 76  1  0  0  0  0
 35 36  1  0  0  0  0
 35 77  1  0  0  0  0
 35 78  1  0  0  0  0
 36 79  1  0  0  0  0
 36 80  1  0  0  0  0
 37 81  1  0  0  0  0
 38 82  1  0  0  0  0
 39 83  1  0  0  0  0
 39 84  1  0  0  0  0
 40 85  1  0  0  0  0
 41 86  1  0  0  0  0
 42 87  1  0  0  0  0
 42 88  1  0  0  0  0
M  END
$$$$
Target_lig_751
 OpenBabel04172506213D

109115  0  0  1  0  0  0  0  0999 V2000
   -1.1435   -6.6886    2.6125 N   0  0  0  0  0  0  0  0  0  0  0  0
   -1.2861   -5.4088    3.3209 C   0  0  0  0  0  0  0  0  0  0  0  0
   -0.0782   -4.4395    3.2680 C   0  0  3  0  0  0  0  0  0  0  0  0
    0.1285   -3.8375    1.9902 O   0  0  0  0  0  0  0  0  0  0  0  0
    0.8044   -4.5972    0.9952 C   0  0  3  0  0  0  0  0  0  0  0  0
    1.1534   -3.7179   -0.1116 O   0  0  0  0  0  0  0  0  0  0  0  0
    0.0232   -3.3513   -0.9135 C   0  0  3  0  0  0  0  0  0  0  0  0
    0.4483   -2.6087   -2.2130 C   0  0  3  0  0  0  0  0  0  0  0  0
    0.5186   -3.3035   -3.6144 C   0  0  0  0  0  0  0  0  0  0  0  0
    1.0494   -4.6415   -3.6864 N   0  0  0  0  0  0  0  0  0  0  0  0
    2.2236   -4.9137   -3.1104 N   0  0  0  0  0  0  0  0  0  0  0  0
    2.4851   -6.2030   -3.2678 N   0  0  0  0  0  0  0  0  0  0  0  0
    1.4594   -6.7545   -4.0221 C   0  0  0  0  0  0  0  0  0  0  0  0
    0.5761   -5.7247   -4.3555 C   0  0  0  0  0  0  0  0  0  0  0  0
    1.5087   -8.2037   -4.3642 C   0  0  0  0  0  0  0  0  0  0  0  0
    0.7997   -9.0094   -3.3826 N   0  0  0  0  0  0  0  0  0  0  0  0
    1.3367   -9.6200   -2.2858 C   0  0  0  0  0  0  0  0  0  0  0  0
    0.4339  -10.2997   -1.5985 N   0  0  0  0  0  0  0  0  0  0  0  0
   -0.7414  -10.1306   -2.3067 C   0  0  0  0  0  0  0  0  0  0  0  0
   -0.5245   -9.3626   -3.4406 C   0  0  0  0  0  0  0  0  0  0  0  0
   -1.4187   -9.0286   -4.3802 N   0  0  0  0  0  0  0  0  0  0  0  0
   -2.6255   -9.5642   -4.1056 C   0  0  0  0  0  0  0  0  0  0  0  0
   -2.9948  -10.2948   -3.0337 N   0  0  0  0  0  0  0  0  0  0  0  0
   -2.0600  -10.5840   -2.0981 C   0  0  0  0  0  0  0  0  0  0  0  0
   -2.4672  -11.3135   -0.9875 N   0  0  0  0  0  0  0  0  0  0  0  0
   -0.4443   -1.4633   -2.3725 O   0  0  0  0  0  0  0  0  0  0  0  0
   -1.5009   -1.5211   -1.3978 C   0  0  3  0  0  0  0  0  0  0  0  0
   -0.9268   -2.3443   -0.2359 C   0  0  3  0  0  0  0  0  0  0  0  0
   -0.2036   -1.4199    0.6093 O   0  0  0  0  0  0  0  0  0  0  0  0
   -2.7141   -2.0292   -1.9793 O   0  0  0  0  0  0  0  0  0  0  0  0
   -3.2303   -1.2322   -3.0605 C   0  0  3  0  0  0  0  0  0  0  0  0
   -3.8843    0.0798   -2.5686 C   0  0  3  0  0  0  0  0  0  0  0  0
   -3.6241    1.1390   -3.5070 O   0  0  0  0  0  0  0  0  0  0  0  0
   -5.4012   -0.0168   -2.3068 C   0  0  3  0  0  0  0  0  0  0  0  0
   -5.9304    1.3099   -1.9483 N   0  0  0  0  0  0  0  0  0  0  0  0
   -6.1618   -0.5108   -3.5387 C   0  0  0  0  0  0  0  0  0  0  0  0
   -5.6782   -1.9005   -3.9386 C   0  0  3  0  0  0  0  0  0  0  0  0
   -4.1400   -2.0613   -4.0356 C   0  0  3  0  0  0  0  0  0  0  0  0
   -3.6540   -3.3886   -4.2970 O   0  0  0  0  0  0  0  0  0  0  0  0
   -4.0138   -4.6098   -3.6160 C   0  0  3  0  0  0  0  0  0  0  0  0
   -5.3596   -4.9528   -3.4127 O   0  0  0  0  0  0  0  0  0  0  0  0
   -5.8782   -4.7355   -2.1005 C   0  0  3  0  0  0  0  0  0  0  0  0
   -7.3179   -5.2121   -2.1562 C   0  0  0  0  0  0  0  0  0  0  0  0
   -8.0548   -4.7329   -0.9989 N   0  0  0  0  0  0  0  0  0  0  0  0
   -5.0513   -5.2956   -0.9377 C   0  0  3  0  0  0  0  0  0  0  0  0
   -3.6975   -4.6306   -1.0560 C   0  0  3  0  0  0  0  0  0  0  0  0
   -3.1203   -5.0242   -2.4195 C   0  0  3  0  0  0  0  0  0  0  0  0
   -1.8110   -4.5172   -2.6868 N   0  0  0  0  0  0  0  0  0  0  0  0
   -2.8476   -4.9775    0.0302 O   0  0  0  0  0  0  0  0  0  0  0  0
   -4.9321   -6.7166   -0.9209 O   0  0  0  0  0  0  0  0  0  0  0  0
   -6.3644   -2.3783   -5.1508 N   0  0  0  0  0  0  0  0  0  0  0  0
    2.1538   -5.1504    1.5266 C   0  0  3  0  0  0  0  0  0  0  0  0
    1.9586   -5.8694    2.8676 C   0  0  3  0  0  0  0  0  0  0  0  0
    1.2201   -4.9765    3.8726 C   0  0  3  0  0  0  0  0  0  0  0  0
    0.9496   -5.6511    5.1072 O   0  0  0  0  0  0  0  0  0  0  0  0
    3.2336   -6.2440    3.4189 O   0  0  0  0  0  0  0  0  0  0  0  0
    3.1712   -4.0545    1.6741 N   0  0  0  0  0  0  0  0  0  0  0  0
   -2.0782   -7.0893    2.5067 H   0  0  0  0  0  0  0  0  0  0  0  0
   -0.6637   -7.3489    3.2278 H   0  0  0  0  0  0  0  0  0  0  0  0
   -1.5225   -5.6324    4.3697 H   0  0  0  0  0  0  0  0  0  0  0  0
   -2.1589   -4.8946    2.9056 H   0  0  0  0  0  0  0  0  0  0  0  0
   -0.3868   -3.6041    3.9110 H   0  0  0  0  0  0  0  0  0  0  0  0
    0.1803   -5.4247    0.6362 H   0  0  0  0  0  0  0  0  0  0  0  0
   -0.4703   -4.2946   -1.1075 H   0  0  0  0  0  0  0  0  0  0  0  0
    1.4462   -2.1898   -2.0412 H   0  0  0  0  0  0  0  0  0  0  0  0
    1.1546   -2.6870   -4.2651 H   0  0  0  0  0  0  0  0  0  0  0  0
   -0.4321   -3.2616   -4.1594 H   0  0  0  0  0  0  0  0  0  0  0  0
   -0.3288   -5.7684   -4.9586 H   0  0  0  0  0  0  0  0  0  0  0  0
    2.5395   -8.5729   -4.4064 H   0  0  0  0  0  0  0  0  0  0  0  0
    1.0624   -8.3883   -5.3467 H   0  0  0  0  0  0  0  0  0  0  0  0
    2.3889   -9.5343   -2.0174 H   0  0  0  0  0  0  0  0  0  0  0  0
   -3.4059   -9.3830   -4.8403 H   0  0  0  0  0  0  0  0  0  0  0  0
   -1.7169  -11.7930   -0.5053 H   0  0  0  0  0  0  0  0  0  0  0  0
   -3.3303  -11.8152   -1.1457 H   0  0  0  0  0  0  0  0  0  0  0  0
   -1.6887   -0.5064   -1.0372 H   0  0  0  0  0  0  0  0  0  0  0  0
   -1.6926   -2.8168    0.3828 H   0  0  0  0  0  0  0  0  0  0  0  0
    0.4957   -1.0196    0.0653 H   0  0  0  0  0  0  0  0  0  0  0  0
   -2.3591   -0.9599   -3.6705 H   0  0  0  0  0  0  0  0  0  0  0  0
   -3.4221    0.4057   -1.6319 H   0  0  0  0  0  0  0  0  0  0  0  0
   -4.0973    0.9566   -4.3357 H   0  0  0  0  0  0  0  0  0  0  0  0
   -5.5861   -0.7024   -1.4698 H   0  0  0  0  0  0  0  0  0  0  0  0
   -5.5283    1.9937   -2.5985 H   0  0  0  0  0  0  0  0  0  0  0  0
   -5.5414    1.5887   -1.0449 H   0  0  0  0  0  0  0  0  0  0  0  0
   -6.0741    0.1910   -4.3763 H   0  0  0  0  0  0  0  0  0  0  0  0
   -7.2341   -0.5684   -3.2984 H   0  0  0  0  0  0  0  0  0  0  0  0
   -6.0492   -2.5324   -3.1627 H   0  0  0  0  0  0  0  0  0  0  0  0
   -3.9258   -1.5522   -4.9901 H   0  0  0  0  0  0  0  0  0  0  0  0
   -3.6970   -5.3240   -4.3895 H   0  0  0  0  0  0  0  0  0  0  0  0
   -5.8869   -3.6712   -1.8907 H   0  0  0  0  0  0  0  0  0  0  0  0
   -7.3501   -6.2993   -2.2409 H   0  0  0  0  0  0  0  0  0  0  0  0
   -7.7778   -4.8130   -3.0706 H   0  0  0  0  0  0  0  0  0  0  0  0
   -7.6616   -5.1512   -0.1539 H   0  0  0  0  0  0  0  0  0  0  0  0
   -9.0169   -5.0768   -1.0531 H   0  0  0  0  0  0  0  0  0  0  0  0
   -5.4857   -5.0100    0.0260 H   0  0  0  0  0  0  0  0  0  0  0  0
   -3.8549   -3.5507   -0.9649 H   0  0  0  0  0  0  0  0  0  0  0  0
   -3.0094   -6.1110   -2.4145 H   0  0  0  0  0  0  0  0  0  0  0  0
   -1.9701   -3.5466   -2.9557 H   0  0  0  0  0  0  0  0  0  0  0  0
   -1.4946   -4.9942   -3.5265 H   0  0  0  0  0  0  0  0  0  0  0  0
   -2.7802   -5.9527    0.0496 H   0  0  0  0  0  0  0  0  0  0  0  0
   -4.7094   -7.0387   -1.8109 H   0  0  0  0  0  0  0  0  0  0  0  0
   -6.4526   -1.6386   -5.8460 H   0  0  0  0  0  0  0  0  0  0  0  0
   -7.3176   -2.6563   -4.9115 H   0  0  0  0  0  0  0  0  0  0  0  0
    2.5853   -5.8466    0.7967 H   0  0  0  0  0  0  0  0  0  0  0  0
    1.4257   -6.8111    2.7186 H   0  0  0  0  0  0  0  0  0  0  0  0
    1.8715   -4.1281    4.1220 H   0  0  0  0  0  0  0  0  0  0  0  0
    1.3999   -6.5142    5.0631 H   0  0  0  0  0  0  0  0  0  0  0  0
    3.8435   -5.5347    3.1192 H   0  0  0  0  0  0  0  0  0  0  0  0
    2.6652   -3.2559    2.0783 H   0  0  0  0  0  0  0  0  0  0  0  0
    3.3173   -3.7165    0.7127 H   0  0  0  0  0  0  0  0  0  0  0  0
  1  2  1  0  0  0  0
  1 58  1  0  0  0  0
  1 59  1  0  0  0  0
  2  3  1  0  0  0  0
  2 60  1  0  0  0  0
  2 61  1  0  0  0  0
  3  4  1  0  0  0  0
  3 54  1  0  0  0  0
  3 62  1  0  0  0  0
  4  5  1  0  0  0  0
  5  6  1  0  0  0  0
  5 52  1  0  0  0  0
  5 63  1  0  0  0  0
  6  7  1  0  0  0  0
  7  8  1  0  0  0  0
  7 28  1  0  0  0  0
  7 64  1  0  0  0  0
  8  9  1  0  0  0  0
  8 26  1  0  0  0  0
  8 65  1  0  0  0  0
  9 10  1  0  0  0  0
  9 66  1  0  0  0  0
  9 67  1  0  0  0  0
 10 11  1  0  0  0  0
 10 14  1  0  0  0  0
 11 12  2  0  0  0  0
 12 13  1  0  0  0  0
 13 14  2  0  0  0  0
 13 15  1  0  0  0  0
 14 68  1  0  0  0  0
 15 16  1  0  0  0  0
 15 69  1  0  0  0  0
 15 70  1  0  0  0  0
 16 17  1  0  0  0  0
 16 20  1  0  0  0  0
 17 18  2  0  0  0  0
 17 71  1  0  0  0  0
 18 19  1  0  0  0  0
 19 20  1  0  0  0  0
 19 24  2  0  0  0  0
 20 21  2  0  0  0  0
 21 22  1  0  0  0  0
 22 23  2  0  0  0  0
 22 72  1  0  0  0  0
 23 24  1  0  0  0  0
 24 25  1  0  0  0  0
 25 73  1  0  0  0  0
 25 74  1  0  0  0  0
 26 27  1  0  0  0  0
 27 28  1  0  0  0  0
 27 30  1  0  0  0  0
 27 75  1  0  0  0  0
 28 29  1  0  0  0  0
 28 76  1  0  0  0  0
 29 77  1  0  0  0  0
 30 31  1  0  0  0  0
 31 32  1  0  0  0  0
 31 38  1  0  0  0  0
 31 78  1  0  0  0  0
 32 33  1  0  0  0  0
 32 34  1  0  0  0  0
 32 79  1  0  0  0  0
 33 80  1  0  0  0  0
 34 35  1  0  0  0  0
 34 36  1  0  0  0  0
 34 81  1  0  0  0  0
 35 82  1  0  0  0  0
 35 83  1  0  0  0  0
 36 37  1  0  0  0  0
 36 84  1  0  0  0  0
 36 85  1  0  0  0  0
 37 38  1  0  0  0  0
 37 51  1  0  0  0  0
 37 86  1  0  0  0  0
 38 39  1  0  0  0  0
 38 87  1  0  0  0  0
 39 40  1  0  0  0  0
 40 41  1  0  0  0  0
 40 47  1  0  0  0  0
 40 88  1  0  0  0  0
 41 42  1  0  0  0  0
 42 43  1  0  0  0  0
 42 45  1  0  0  0  0
 42 89  1  0  0  0  0
 43 44  1  0  0  0  0
 43 90  1  0  0  0  0
 43 91  1  0  0  0  0
 44 92  1  0  0  0  0
 44 93  1  0  0  0  0
 45 46  1  0  0  0  0
 45 50  1  0  0  0  0
 45 94  1  0  0  0  0
 46 47  1  0  0  0  0
 46 49  1  0  0  0  0
 46 95  1  0  0  0  0
 47 48  1  0  0  0  0
 47 96  1  0  0  0  0
 48 97  1  0  0  0  0
 48 98  1  0  0  0  0
 49 99  1  0  0  0  0
 50100  1  0  0  0  0
 51101  1  0  0  0  0
 51102  1  0  0  0  0
 52 53  1  0  0  0  0
 52 57  1  0  0  0  0
 52103  1  0  0  0  0
 53 54  1  0  0  0  0
 53 56  1  0  0  0  0
 53104  1  0  0  0  0
 54 55  1  0  0  0  0
 54105  1  0  0  0  0
 55106  1  0  0  0  0
 56107  1  0  0  0  0
 57108  1  0  0  0  0
 57109  1  0  0  0  0
M  END
$$$$
Target_lig_752
 OpenBabel04172506213D

106111  0  0  1  0  0  0  0  0999 V2000
    6.1528    6.3875   -0.7684 N   0  0  0  0  0  0  0  0  0  0  0  0
    5.6421    7.4536    0.1002 C   0  0  0  0  0  0  0  0  0  0  0  0
    4.1035    7.5061    0.2872 C   0  0  3  0  0  0  0  0  0  0  0  0
    3.5938    6.4050    1.0611 O   0  0  0  0  0  0  0  0  0  0  0  0
    3.3626    5.1954    0.3418 C   0  0  3  0  0  0  0  0  0  0  0  0
    2.8652    4.1721    1.2197 O   0  0  0  0  0  0  0  0  0  0  0  0
    3.7529    3.8748    2.3013 C   0  0  3  0  0  0  0  0  0  0  0  0
    5.0406    3.1541    1.8771 C   0  0  3  0  0  0  0  0  0  0  0  0
    6.2308    3.9664    1.4130 C   0  0  0  0  0  0  0  0  0  0  0  0
    7.4320    3.1627    1.2589 N   0  0  0  0  0  0  0  0  0  0  0  0
    7.3911    1.9424    0.6889 N   0  0  0  0  0  0  0  0  0  0  0  0
    8.6403    1.5071    0.5915 N   0  0  0  0  0  0  0  0  0  0  0  0
    9.4714    2.4921    1.0614 C   0  0  0  0  0  0  0  0  0  0  0  0
    8.7102    3.5546    1.4964 C   0  0  0  0  0  0  0  0  0  0  0  0
   10.9524    2.3463    1.0458 C   0  0  0  0  0  0  0  0  0  0  0  0
   11.4072    1.8457    2.3376 N   0  0  0  0  0  0  0  0  0  0  0  0
   11.5737    0.4891    2.5238 C   0  0  0  0  0  0  0  0  0  0  0  0
   11.8812   -0.0185    3.7184 C   0  0  0  0  0  0  0  0  0  0  0  0
   11.9946    0.8926    4.8657 C   0  0  0  0  0  0  0  0  0  0  0  0
   12.1453    0.4505    6.0068 O   0  0  0  0  0  0  0  0  0  0  0  0
   11.9042    2.2210    4.5880 N   0  0  0  0  0  0  0  0  0  0  0  0
   11.5806    2.7575    3.3701 C   0  0  0  0  0  0  0  0  0  0  0  0
   11.4504    3.9736    3.2404 O   0  0  0  0  0  0  0  0  0  0  0  0
    5.4497    2.5197    3.0752 O   0  0  0  0  0  0  0  0  0  0  0  0
    4.2961    1.8682    3.5600 C   0  0  3  0  0  0  0  0  0  0  0  0
    3.1412    2.8699    3.3367 C   0  0  3  0  0  0  0  0  0  0  0  0
    1.9603    2.2014    2.8669 O   0  0  0  0  0  0  0  0  0  0  0  0
    4.5586    1.3989    4.8714 O   0  0  0  0  0  0  0  0  0  0  0  0
    5.8467    0.7032    4.9196 C   0  0  3  0  0  0  0  0  0  0  0  0
    5.8909   -0.5292    3.9777 C   0  0  3  0  0  0  0  0  0  0  0  0
    7.1958   -1.1295    3.9899 O   0  0  0  0  0  0  0  0  0  0  0  0
    4.7994   -1.5473    4.3778 C   0  0  3  0  0  0  0  0  0  0  0  0
    4.9076   -2.7822    3.5771 N   0  0  0  0  0  0  0  0  0  0  0  0
    4.8892   -1.9139    5.8664 C   0  0  0  0  0  0  0  0  0  0  0  0
    5.0081   -0.6972    6.8167 C   0  0  3  0  0  0  0  0  0  0  0  0
    6.1633    0.2464    6.3647 C   0  0  3  0  0  0  0  0  0  0  0  0
    6.3866    1.4251    7.1788 O   0  0  0  0  0  0  0  0  0  0  0  0
    7.2756    1.1970    8.2875 C   0  0  3  0  0  0  0  0  0  0  0  0
    6.5636    0.7346    9.4301 O   0  0  0  0  0  0  0  0  0  0  0  0
    5.6336    1.7170    9.9235 C   0  0  3  0  0  0  0  0  0  0  0  0
    4.6558    1.0219   10.8886 C   0  0  0  0  0  0  0  0  0  0  0  0
    5.2883    0.0621   11.8025 N   0  0  0  0  0  0  0  0  0  0  0  0
    6.4490    2.8694   10.5214 C   0  0  3  0  0  0  0  0  0  0  0  0
    7.2407    3.5232    9.3700 C   0  0  3  0  0  0  0  0  0  0  0  0
    8.1241    2.4636    8.6591 C   0  0  3  0  0  0  0  0  0  0  0  0
    8.8860    3.0299    7.5197 N   0  0  0  0  0  0  0  0  0  0  0  0
    8.0403    4.5883    9.9100 O   0  0  0  0  0  0  0  0  0  0  0  0
    7.3989    2.4167   11.5059 O   0  0  0  0  0  0  0  0  0  0  0  0
    5.1672   -1.2363    8.1695 N   0  0  0  0  0  0  0  0  0  0  0  0
    2.3575    5.4156   -0.8093 C   0  0  3  0  0  0  0  0  0  0  0  0
    2.9489    6.4819   -1.7417 C   0  0  3  0  0  0  0  0  0  0  0  0
    3.2954    7.7733   -0.9927 C   0  0  3  0  0  0  0  0  0  0  0  0
    3.9991    8.6726   -1.8581 O   0  0  0  0  0  0  0  0  0  0  0  0
    2.0296    6.7921   -2.8000 O   0  0  0  0  0  0  0  0  0  0  0  0
    0.9990    5.8049   -0.3405 N   0  0  0  0  0  0  0  0  0  0  0  0
    7.1720    6.3642   -0.6756 H   0  0  0  0  0  0  0  0  0  0  0  0
    6.0000    6.6562   -1.7432 H   0  0  0  0  0  0  0  0  0  0  0  0
    6.0008    8.4102   -0.2974 H   0  0  0  0  0  0  0  0  0  0  0  0
    6.1028    7.3261    1.0862 H   0  0  0  0  0  0  0  0  0  0  0  0
    3.9495    8.3828    0.9313 H   0  0  0  0  0  0  0  0  0  0  0  0
    4.2731    4.8261   -0.1182 H   0  0  0  0  0  0  0  0  0  0  0  0
    3.9910    4.7893    2.8599 H   0  0  0  0  0  0  0  0  0  0  0  0
    4.8031    2.3887    1.1260 H   0  0  0  0  0  0  0  0  0  0  0  0
    6.4652    4.7751    2.1138 H   0  0  0  0  0  0  0  0  0  0  0  0
    6.0664    4.3623    0.4221 H   0  0  0  0  0  0  0  0  0  0  0  0
    8.9708    4.5111    1.9260 H   0  0  0  0  0  0  0  0  0  0  0  0
   11.4176    3.3178    0.8430 H   0  0  0  0  0  0  0  0  0  0  0  0
   11.2650    1.6635    0.2463 H   0  0  0  0  0  0  0  0  0  0  0  0
   11.4325   -0.1537    1.6603 H   0  0  0  0  0  0  0  0  0  0  0  0
   12.0160   -1.0754    3.8945 H   0  0  0  0  0  0  0  0  0  0  0  0
   11.9819    2.8733    5.3561 H   0  0  0  0  0  0  0  0  0  0  0  0
    4.0857    0.9984    2.9285 H   0  0  0  0  0  0  0  0  0  0  0  0
    2.8632    3.3851    4.2615 H   0  0  0  0  0  0  0  0  0  0  0  0
    2.1935    1.6426    2.1061 H   0  0  0  0  0  0  0  0  0  0  0  0
    6.6417    1.4090    4.6464 H   0  0  0  0  0  0  0  0  0  0  0  0
    5.7267   -0.2330    2.9365 H   0  0  0  0  0  0  0  0  0  0  0  0
    7.1589   -1.9563    4.4991 H   0  0  0  0  0  0  0  0  0  0  0  0
    3.8081   -1.1150    4.1934 H   0  0  0  0  0  0  0  0  0  0  0  0
    5.8726   -2.9110    3.2626 H   0  0  0  0  0  0  0  0  0  0  0  0
    4.3910   -2.6630    2.7033 H   0  0  0  0  0  0  0  0  0  0  0  0
    5.7526   -2.5750    6.0263 H   0  0  0  0  0  0  0  0  0  0  0  0
    4.0016   -2.5012    6.1391 H   0  0  0  0  0  0  0  0  0  0  0  0
    4.0686   -0.1323    6.8146 H   0  0  0  0  0  0  0  0  0  0  0  0
    7.1041   -0.3167    6.3295 H   0  0  0  0  0  0  0  0  0  0  0  0
    7.9977    0.4165    8.0205 H   0  0  0  0  0  0  0  0  0  0  0  0
    5.0213    2.1037    9.0986 H   0  0  0  0  0  0  0  0  0  0  0  0
    3.9379    0.4563   10.2814 H   0  0  0  0  0  0  0  0  0  0  0  0
    4.0803    1.7592   11.4571 H   0  0  0  0  0  0  0  0  0  0  0  0
    5.8048   -0.5962   11.2097 H   0  0  0  0  0  0  0  0  0  0  0  0
    4.5474   -0.4971   12.2294 H   0  0  0  0  0  0  0  0  0  0  0  0
    5.8091    3.6105   11.0116 H   0  0  0  0  0  0  0  0  0  0  0  0
    6.5454    3.9759    8.6534 H   0  0  0  0  0  0  0  0  0  0  0  0
    8.8802    2.1454    9.3897 H   0  0  0  0  0  0  0  0  0  0  0  0
    8.2310    3.2280    6.7632 H   0  0  0  0  0  0  0  0  0  0  0  0
    9.5320    2.3240    7.1709 H   0  0  0  0  0  0  0  0  0  0  0  0
    8.5258    4.1915   10.6596 H   0  0  0  0  0  0  0  0  0  0  0  0
    7.2807    1.4469   11.5822 H   0  0  0  0  0  0  0  0  0  0  0  0
    6.0513   -1.7318    8.2607 H   0  0  0  0  0  0  0  0  0  0  0  0
    4.4204   -1.8914    8.3859 H   0  0  0  0  0  0  0  0  0  0  0  0
    2.2224    4.4819   -1.3687 H   0  0  0  0  0  0  0  0  0  0  0  0
    3.8423    6.0893   -2.2385 H   0  0  0  0  0  0  0  0  0  0  0  0
    2.3585    8.2755   -0.7181 H   0  0  0  0  0  0  0  0  0  0  0  0
    3.6809    8.4849   -2.7634 H   0  0  0  0  0  0  0  0  0  0  0  0
    1.1398    6.6578   -2.4076 H   0  0  0  0  0  0  0  0  0  0  0  0
    1.1123    6.5183    0.3874 H   0  0  0  0  0  0  0  0  0  0  0  0
    0.6480    5.0061    0.2031 H   0  0  0  0  0  0  0  0  0  0  0  0
  1  2  1  0  0  0  0
  1 56  1  0  0  0  0
  1 57  1  0  0  0  0
  2  3  1  0  0  0  0
  2 58  1  0  0  0  0
  2 59  1  0  0  0  0
  3  4  1  0  0  0  0
  3 52  1  0  0  0  0
  3 60  1  0  0  0  0
  4  5  1  0  0  0  0
  5  6  1  0  0  0  0
  5 50  1  0  0  0  0
  5 61  1  0  0  0  0
  6  7  1  0  0  0  0
  7  8  1  0  0  0  0
  7 26  1  0  0  0  0
  7 62  1  0  0  0  0
  8  9  1  0  0  0  0
  8 24  1  0  0  0  0
  8 63  1  0  0  0  0
  9 10  1  0  0  0  0
  9 64  1  0  0  0  0
  9 65  1  0  0  0  0
 10 11  1  0  0  0  0
 10 14  1  0  0  0  0
 11 12  2  0  0  0  0
 12 13  1  0  0  0  0
 13 14  2  0  0  0  0
 13 15  1  0  0  0  0
 14 66  1  0  0  0  0
 15 16  1  0  0  0  0
 15 67  1  0  0  0  0
 15 68  1  0  0  0  0
 16 17  1  0  0  0  0
 16 22  1  0  0  0  0
 17 18  2  0  0  0  0
 17 69  1  0  0  0  0
 18 19  1  0  0  0  0
 18 70  1  0  0  0  0
 19 20  2  0  0  0  0
 19 21  1  0  0  0  0
 21 22  1  0  0  0  0
 21 71  1  0  0  0  0
 22 23  2  0  0  0  0
 24 25  1  0  0  0  0
 25 26  1  0  0  0  0
 25 28  1  0  0  0  0
 25 72  1  0  0  0  0
 26 27  1  0  0  0  0
 26 73  1  0  0  0  0
 27 74  1  0  0  0  0
 28 29  1  0  0  0  0
 29 30  1  0  0  0  0
 29 36  1  0  0  0  0
 29 75  1  0  0  0  0
 30 31  1  0  0  0  0
 30 32  1  0  0  0  0
 30 76  1  0  0  0  0
 31 77  1  0  0  0  0
 32 33  1  0  0  0  0
 32 34  1  0  0  0  0
 32 78  1  0  0  0  0
 33 79  1  0  0  0  0
 33 80  1  0  0  0  0
 34 35  1  0  0  0  0
 34 81  1  0  0  0  0
 34 82  1  0  0  0  0
 35 36  1  0  0  0  0
 35 49  1  0  0  0  0
 35 83  1  0  0  0  0
 36 37  1  0  0  0  0
 36 84  1  0  0  0  0
 37 38  1  0  0  0  0
 38 39  1  0  0  0  0
 38 45  1  0  0  0  0
 38 85  1  0  0  0  0
 39 40  1  0  0  0  0
 40 41  1  0  0  0  0
 40 43  1  0  0  0  0
 40 86  1  0  0  0  0
 41 42  1  0  0  0  0
 41 87  1  0  0  0  0
 41 88  1  0  0  0  0
 42 89  1  0  0  0  0
 42 90  1  0  0  0  0
 43 44  1  0  0  0  0
 43 48  1  0  0  0  0
 43 91  1  0  0  0  0
 44 45  1  0  0  0  0
 44 47  1  0  0  0  0
 44 92  1  0  0  0  0
 45 46  1  0  0  0  0
 45 93  1  0  0  0  0
 46 94  1  0  0  0  0
 46 95  1  0  0  0  0
 47 96  1  0  0  0  0
 48 97  1  0  0  0  0
 49 98  1  0  0  0  0
 49 99  1  0  0  0  0
 50 51  1  0  0  0  0
 50 55  1  0  0  0  0
 50100  1  0  0  0  0
 51 52  1  0  0  0  0
 51 54  1  0  0  0  0
 51101  1  0  0  0  0
 52 53  1  0  0  0  0
 52102  1  0  0  0  0
 53103  1  0  0  0  0
 54104  1  0  0  0  0
 55105  1  0  0  0  0
 55106  1  0  0  0  0
M  END
$$$$
Target_lig_753
 OpenBabel04172506213D

107112  0  0  1  0  0  0  0  0999 V2000
    4.8762    5.8604   -3.1912 N   0  0  0  0  0  0  0  0  0  0  0  0
    4.3700    7.1516   -2.7156 C   0  0  0  0  0  0  0  0  0  0  0  0
    2.8816    7.1952   -2.2896 C   0  0  3  0  0  0  0  0  0  0  0  0
    2.6147    6.4015   -1.1249 O   0  0  0  0  0  0  0  0  0  0  0  0
    2.4688    5.0033   -1.3585 C   0  0  3  0  0  0  0  0  0  0  0  0
    2.1569    4.3529   -0.1165 O   0  0  0  0  0  0  0  0  0  0  0  0
    3.2084    4.4594    0.8571 C   0  0  3  0  0  0  0  0  0  0  0  0
    4.4482    3.6594    0.4365 C   0  0  3  0  0  0  0  0  0  0  0  0
    5.6377    4.5896    0.1722 C   0  0  0  0  0  0  0  0  0  0  0  0
    6.8119    3.8804   -0.2868 N   0  0  0  0  0  0  0  0  0  0  0  0
    7.5994    3.2051    0.5740 N   0  0  0  0  0  0  0  0  0  0  0  0
    8.5119    2.5558   -0.1396 N   0  0  0  0  0  0  0  0  0  0  0  0
    8.3358    2.8934   -1.4567 C   0  0  0  0  0  0  0  0  0  0  0  0
    7.3005    3.7953   -1.5511 C   0  0  0  0  0  0  0  0  0  0  0  0
    9.1422    2.2901   -2.5501 C   0  0  0  0  0  0  0  0  0  0  0  0
    8.4219    1.1455   -3.1030 N   0  0  0  0  0  0  0  0  0  0  0  0
    8.6714   -0.1171   -2.6156 C   0  0  0  0  0  0  0  0  0  0  0  0
    7.9742   -1.1759   -3.0225 C   0  0  0  0  0  0  0  0  0  0  0  0
    6.8774   -0.8738   -3.9762 C   0  0  0  0  0  0  0  0  0  0  0  0
    6.6470    0.3097   -4.4544 N   0  0  0  0  0  0  0  0  0  0  0  0
    7.4178    1.3777   -4.0493 C   0  0  0  0  0  0  0  0  0  0  0  0
    7.2135    2.5048   -4.4996 O   0  0  0  0  0  0  0  0  0  0  0  0
    6.0505   -1.8803   -4.3983 N   0  0  0  0  0  0  0  0  0  0  0  0
    4.7229    2.7172    1.4770 O   0  0  0  0  0  0  0  0  0  0  0  0
    4.0309    3.0913    2.6662 C   0  0  3  0  0  0  0  0  0  0  0  0
    2.7876    3.8463    2.1980 C   0  0  3  0  0  0  0  0  0  0  0  0
    1.7141    2.8946    2.0288 O   0  0  0  0  0  0  0  0  0  0  0  0
    4.8951    3.7698    3.5901 O   0  0  0  0  0  0  0  0  0  0  0  0
    6.1112    2.9945    3.8180 C   0  0  3  0  0  0  0  0  0  0  0  0
    5.8171    1.6182    4.4857 C   0  0  3  0  0  0  0  0  0  0  0  0
    6.7575    0.6122    4.0611 O   0  0  0  0  0  0  0  0  0  0  0  0
    5.7513    1.6560    6.0189 C   0  0  3  0  0  0  0  0  0  0  0  0
    5.6525    0.2739    6.5375 N   0  0  0  0  0  0  0  0  0  0  0  0
    6.9857    2.3333    6.6014 C   0  0  0  0  0  0  0  0  0  0  0  0
    7.1569    3.7707    6.0677 C   0  0  3  0  0  0  0  0  0  0  0  0
    7.2577    3.8182    4.5110 C   0  0  3  0  0  0  0  0  0  0  0  0
    7.2793    5.1642    3.9520 O   0  0  0  0  0  0  0  0  0  0  0  0
    8.5604    5.8343    3.9272 C   0  0  3  0  0  0  0  0  0  0  0  0
    8.8107    6.6229    5.0978 O   0  0  0  0  0  0  0  0  0  0  0  0
    7.8333    7.6579    5.2914 C   0  0  3  0  0  0  0  0  0  0  0  0
    8.0397    8.2873    6.6878 C   0  0  0  0  0  0  0  0  0  0  0  0
    9.3897    8.7942    6.9671 N   0  0  0  0  0  0  0  0  0  0  0  0
    7.8593    8.6701    4.1328 C   0  0  3  0  0  0  0  0  0  0  0  0
    7.6604    7.9331    2.7974 C   0  0  3  0  0  0  0  0  0  0  0  0
    8.6883    6.7802    2.6769 C   0  0  3  0  0  0  0  0  0  0  0  0
    8.5781    6.0818    1.3803 N   0  0  0  0  0  0  0  0  0  0  0  0
    7.8108    8.8912    1.7327 O   0  0  0  0  0  0  0  0  0  0  0  0
    9.0972    9.3992    4.0171 O   0  0  0  0  0  0  0  0  0  0  0  0
    8.3629    4.3103    6.7151 N   0  0  0  0  0  0  0  0  0  0  0  0
    1.3257    4.7178   -2.3616 C   0  0  3  0  0  0  0  0  0  0  0  0
    1.6206    5.4690   -3.6712 C   0  0  3  0  0  0  0  0  0  0  0  0
    1.8610    6.9655   -3.4134 C   0  0  3  0  0  0  0  0  0  0  0  0
    2.2563    7.6785   -4.5897 O   0  0  0  0  0  0  0  0  0  0  0  0
    0.5299    5.3016   -4.5882 O   0  0  0  0  0  0  0  0  0  0  0  0
   -0.0153    5.0962   -1.8221 N   0  0  0  0  0  0  0  0  0  0  0  0
    5.8957    5.9386   -3.2472 H   0  0  0  0  0  0  0  0  0  0  0  0
    4.6055    5.7104   -4.1648 H   0  0  0  0  0  0  0  0  0  0  0  0
    4.5623    7.9006   -3.4915 H   0  0  0  0  0  0  0  0  0  0  0  0
    4.9749    7.4325   -1.8457 H   0  0  0  0  0  0  0  0  0  0  0  0
    2.7334    8.2304   -1.9533 H   0  0  0  0  0  0  0  0  0  0  0  0
    3.3861    4.5689   -1.7576 H   0  0  0  0  0  0  0  0  0  0  0  0
    3.4465    5.5167    1.0249 H   0  0  0  0  0  0  0  0  0  0  0  0
    4.2598    3.0566   -0.4578 H   0  0  0  0  0  0  0  0  0  0  0  0
    5.9060    5.1588    1.0665 H   0  0  0  0  0  0  0  0  0  0  0  0
    5.3841    5.3175   -0.6054 H   0  0  0  0  0  0  0  0  0  0  0  0
    6.8629    4.2898   -2.3998 H   0  0  0  0  0  0  0  0  0  0  0  0
   10.1257    1.9710   -2.1790 H   0  0  0  0  0  0  0  0  0  0  0  0
    9.3210    3.0296   -3.3406 H   0  0  0  0  0  0  0  0  0  0  0  0
    9.4718   -0.2250   -1.8795 H   0  0  0  0  0  0  0  0  0  0  0  0
    8.1264   -2.1713   -2.6711 H   0  0  0  0  0  0  0  0  0  0  0  0
    6.4412   -2.8112   -4.4607 H   0  0  0  0  0  0  0  0  0  0  0  0
    5.4954   -1.6156   -5.2017 H   0  0  0  0  0  0  0  0  0  0  0  0
    3.6684    2.1762    3.1323 H   0  0  0  0  0  0  0  0  0  0  0  0
    2.4447    4.5972    2.9147 H   0  0  0  0  0  0  0  0  0  0  0  0
    2.0617    2.1548    1.4958 H   0  0  0  0  0  0  0  0  0  0  0  0
    6.5310    2.7894    2.8329 H   0  0  0  0  0  0  0  0  0  0  0  0
    4.8593    1.2118    4.1700 H   0  0  0  0  0  0  0  0  0  0  0  0
    7.6420    0.8570    4.3589 H   0  0  0  0  0  0  0  0  0  0  0  0
    4.8608    2.2062    6.3442 H   0  0  0  0  0  0  0  0  0  0  0  0
    6.2450   -0.3194    5.9445 H   0  0  0  0  0  0  0  0  0  0  0  0
    4.7141   -0.0822    6.3381 H   0  0  0  0  0  0  0  0  0  0  0  0
    7.8827    1.7394    6.3754 H   0  0  0  0  0  0  0  0  0  0  0  0
    6.9007    2.3506    7.6973 H   0  0  0  0  0  0  0  0  0  0  0  0
    6.3081    4.3873    6.3848 H   0  0  0  0  0  0  0  0  0  0  0  0
    8.1914    3.3140    4.2252 H   0  0  0  0  0  0  0  0  0  0  0  0
    9.3599    5.0872    3.8533 H   0  0  0  0  0  0  0  0  0  0  0  0
    6.8395    7.1887    5.3147 H   0  0  0  0  0  0  0  0  0  0  0  0
    7.8242    7.5202    7.4411 H   0  0  0  0  0  0  0  0  0  0  0  0
    7.3220    9.1022    6.8350 H   0  0  0  0  0  0  0  0  0  0  0  0
   10.0357    8.0047    6.9163 H   0  0  0  0  0  0  0  0  0  0  0  0
    9.4137    9.0955    7.9435 H   0  0  0  0  0  0  0  0  0  0  0  0
    7.0720    9.4214    4.2625 H   0  0  0  0  0  0  0  0  0  0  0  0
    6.6385    7.5403    2.7335 H   0  0  0  0  0  0  0  0  0  0  0  0
    9.6888    7.2325    2.6886 H   0  0  0  0  0  0  0  0  0  0  0  0
    7.8801    5.3476    1.4909 H   0  0  0  0  0  0  0  0  0  0  0  0
    9.4364    5.5619    1.1969 H   0  0  0  0  0  0  0  0  0  0  0  0
    8.5603    9.4573    2.0089 H   0  0  0  0  0  0  0  0  0  0  0  0
    9.7300    8.9967    4.6443 H   0  0  0  0  0  0  0  0  0  0  0  0
    9.1812    3.7563    6.4770 H   0  0  0  0  0  0  0  0  0  0  0  0
    8.2688    4.2628    7.7322 H   0  0  0  0  0  0  0  0  0  0  0  0
    1.2662    3.6411   -2.5629 H   0  0  0  0  0  0  0  0  0  0  0  0
    2.4874    5.0241   -4.1692 H   0  0  0  0  0  0  0  0  0  0  0  0
    0.9058    7.4096   -3.1058 H   0  0  0  0  0  0  0  0  0  0  0  0
    2.5531    7.0310   -5.2522 H   0  0  0  0  0  0  0  0  0  0  0  0
   -0.2735    5.2845   -4.0254 H   0  0  0  0  0  0  0  0  0  0  0  0
    0.0604    6.0443   -1.4404 H   0  0  0  0  0  0  0  0  0  0  0  0
   -0.1334    4.5376   -0.9661 H   0  0  0  0  0  0  0  0  0  0  0  0
  1  2  1  0  0  0  0
  1 56  1  0  0  0  0
  1 57  1  0  0  0  0
  2  3  1  0  0  0  0
  2 58  1  0  0  0  0
  2 59  1  0  0  0  0
  3  4  1  0  0  0  0
  3 52  1  0  0  0  0
  3 60  1  0  0  0  0
  4  5  1  0  0  0  0
  5  6  1  0  0  0  0
  5 50  1  0  0  0  0
  5 61  1  0  0  0  0
  6  7  1  0  0  0  0
  7  8  1  0  0  0  0
  7 26  1  0  0  0  0
  7 62  1  0  0  0  0
  8  9  1  0  0  0  0
  8 24  1  0  0  0  0
  8 63  1  0  0  0  0
  9 10  1  0  0  0  0
  9 64  1  0  0  0  0
  9 65  1  0  0  0  0
 10 11  1  0  0  0  0
 10 14  1  0  0  0  0
 11 12  2  0  0  0  0
 12 13  1  0  0  0  0
 13 14  2  0  0  0  0
 13 15  1  0  0  0  0
 14 66  1  0  0  0  0
 15 16  1  0  0  0  0
 15 67  1  0  0  0  0
 15 68  1  0  0  0  0
 16 17  1  0  0  0  0
 16 21  1  0  0  0  0
 17 18  2  0  0  0  0
 17 69  1  0  0  0  0
 18 19  1  0  0  0  0
 18 70  1  0  0  0  0
 19 20  2  0  0  0  0
 19 23  1  0  0  0  0
 20 21  1  0  0  0  0
 21 22  2  0  0  0  0
 23 71  1  0  0  0  0
 23 72  1  0  0  0  0
 24 25  1  0  0  0  0
 25 26  1  0  0  0  0
 25 28  1  0  0  0  0
 25 73  1  0  0  0  0
 26 27  1  0  0  0  0
 26 74  1  0  0  0  0
 27 75  1  0  0  0  0
 28 29  1  0  0  0  0
 29 30  1  0  0  0  0
 29 36  1  0  0  0  0
 29 76  1  0  0  0  0
 30 31  1  0  0  0  0
 30 32  1  0  0  0  0
 30 77  1  0  0  0  0
 31 78  1  0  0  0  0
 32 33  1  0  0  0  0
 32 34  1  0  0  0  0
 32 79  1  0  0  0  0
 33 80  1  0  0  0  0
 33 81  1  0  0  0  0
 34 35  1  0  0  0  0
 34 82  1  0  0  0  0
 34 83  1  0  0  0  0
 35 36  1  0  0  0  0
 35 49  1  0  0  0  0
 35 84  1  0  0  0  0
 36 37  1  0  0  0  0
 36 85  1  0  0  0  0
 37 38  1  0  0  0  0
 38 39  1  0  0  0  0
 38 45  1  0  0  0  0
 38 86  1  0  0  0  0
 39 40  1  0  0  0  0
 40 41  1  0  0  0  0
 40 43  1  0  0  0  0
 40 87  1  0  0  0  0
 41 42  1  0  0  0  0
 41 88  1  0  0  0  0
 41 89  1  0  0  0  0
 42 90  1  0  0  0  0
 42 91  1  0  0  0  0
 43 44  1  0  0  0  0
 43 48  1  0  0  0  0
 43 92  1  0  0  0  0
 44 45  1  0  0  0  0
 44 47  1  0  0  0  0
 44 93  1  0  0  0  0
 45 46  1  0  0  0  0
 45 94  1  0  0  0  0
 46 95  1  0  0  0  0
 46 96  1  0  0  0  0
 47 97  1  0  0  0  0
 48 98  1  0  0  0  0
 49 99  1  0  0  0  0
 49100  1  0  0  0  0
 50 51  1  0  0  0  0
 50 55  1  0  0  0  0
 50101  1  0  0  0  0
 51 52  1  0  0  0  0
 51 54  1  0  0  0  0
 51102  1  0  0  0  0
 52 53  1  0  0  0  0
 52103  1  0  0  0  0
 53104  1  0  0  0  0
 54105  1  0  0  0  0
 55106  1  0  0  0  0
 55107  1  0  0  0  0
M  END
$$$$
Target_lig_754
 OpenBabel04172506213D

110116  0  0  1  0  0  0  0  0999 V2000
    4.7430    5.3967   -4.5659 N   0  0  0  0  0  0  0  0  0  0  0  0
    6.0115    4.9640   -3.9787 C   0  0  0  0  0  0  0  0  0  0  0  0
    5.8989    3.5501   -3.3679 C   0  0  3  0  0  0  0  0  0  0  0  0
    4.9010    3.5113   -2.3438 O   0  0  0  0  0  0  0  0  0  0  0  0
    5.2158    4.1155   -1.1003 C   0  0  3  0  0  0  0  0  0  0  0  0
    4.1532    3.9255   -0.1634 O   0  0  0  0  0  0  0  0  0  0  0  0
    2.9138    4.5719   -0.4794 C   0  0  3  0  0  0  0  0  0  0  0  0
    1.9487    4.1978    0.6557 C   0  0  3  0  0  0  0  0  0  0  0  0
    1.4574    5.3726    1.5261 C   0  0  0  0  0  0  0  0  0  0  0  0
    0.5189    4.9891    2.5877 N   0  0  0  0  0  0  0  0  0  0  0  0
   -0.4580    5.8435    2.9621 N   0  0  0  0  0  0  0  0  0  0  0  0
   -1.4072    5.1374    3.5686 N   0  0  0  0  0  0  0  0  0  0  0  0
   -1.0004    3.8251    3.6352 C   0  0  0  0  0  0  0  0  0  0  0  0
    0.2654    3.7384    3.0928 C   0  0  0  0  0  0  0  0  0  0  0  0
   -1.9305    2.7071    3.9986 C   0  0  0  0  0  0  0  0  0  0  0  0
   -2.5158    2.8242    5.3107 N   0  0  0  0  0  0  0  0  0  0  0  0
   -1.8423    2.8117    6.4993 C   0  0  0  0  0  0  0  0  0  0  0  0
   -2.4839    3.5326    7.4038 N   0  0  0  0  0  0  0  0  0  0  0  0
   -3.5918    4.0004    6.7246 C   0  0  0  0  0  0  0  0  0  0  0  0
   -3.7630    3.3247    5.5559 C   0  0  0  0  0  0  0  0  0  0  0  0
   -4.6168    3.7416    4.5825 N   0  0  0  0  0  0  0  0  0  0  0  0
   -4.7262    5.1197    4.5887 C   0  0  0  0  0  0  0  0  0  0  0  0
   -4.7174    5.5806    3.3062 N   0  0  0  0  0  0  0  0  0  0  0  0
   -4.5785    5.8834    5.6247 N   0  0  0  0  0  0  0  0  0  0  0  0
   -4.3172    5.2940    6.8718 C   0  0  0  0  0  0  0  0  0  0  0  0
   -4.5652    5.7909    7.9482 O   0  0  0  0  0  0  0  0  0  0  0  0
    0.8597    3.5250    0.0100 O   0  0  0  0  0  0  0  0  0  0  0  0
    0.7458    3.9852   -1.3370 C   0  0  3  0  0  0  0  0  0  0  0  0
    2.2059    4.0423   -1.7441 C   0  0  3  0  0  0  0  0  0  0  0  0
    2.5441    2.6621   -2.0215 O   0  0  0  0  0  0  0  0  0  0  0  0
   -0.0416    5.1587   -1.3950 O   0  0  0  0  0  0  0  0  0  0  0  0
   -1.4584    4.9805   -1.0581 C   0  0  3  0  0  0  0  0  0  0  0  0
   -1.7558    4.0825    0.1569 C   0  0  3  0  0  0  0  0  0  0  0  0
   -3.0079    4.3958    0.8002 O   0  0  0  0  0  0  0  0  0  0  0  0
   -1.7317    2.5723   -0.1537 C   0  0  3  0  0  0  0  0  0  0  0  0
   -2.1149    1.8249    1.0438 N   0  0  0  0  0  0  0  0  0  0  0  0
   -2.6897    2.2352   -1.2728 C   0  0  0  0  0  0  0  0  0  0  0  0
   -2.3650    3.0477   -2.5404 C   0  0  3  0  0  0  0  0  0  0  0  0
   -2.3886    4.6028   -2.2538 C   0  0  3  0  0  0  0  0  0  0  0  0
   -2.1326    5.4072   -3.4216 O   0  0  0  0  0  0  0  0  0  0  0  0
   -2.0721    6.8284   -3.1608 C   0  0  3  0  0  0  0  0  0  0  0  0
   -3.2853    7.3750   -2.6400 O   0  0  0  0  0  0  0  0  0  0  0  0
   -4.3326    7.5684   -3.6076 C   0  0  3  0  0  0  0  0  0  0  0  0
   -5.5154    8.2714   -2.8868 C   0  0  0  0  0  0  0  0  0  0  0  0
   -5.1577    9.5579   -2.2639 N   0  0  0  0  0  0  0  0  0  0  0  0
   -3.8558    8.3453   -4.8552 C   0  0  3  0  0  0  0  0  0  0  0  0
   -2.6190    7.6652   -5.4631 C   0  0  3  0  0  0  0  0  0  0  0  0
   -1.5227    7.6014   -4.3856 C   0  0  3  0  0  0  0  0  0  0  0  0
   -0.2353    7.0497   -4.8655 N   0  0  0  0  0  0  0  0  0  0  0  0
   -2.1829    8.4424   -6.5881 O   0  0  0  0  0  0  0  0  0  0  0  0
   -3.4684    9.7041   -4.5645 O   0  0  0  0  0  0  0  0  0  0  0  0
   -3.3170    2.5755   -3.5565 N   0  0  0  0  0  0  0  0  0  0  0  0
    6.4697    3.4341   -0.4988 C   0  0  3  0  0  0  0  0  0  0  0  0
    7.6119    3.5780   -1.5144 C   0  0  3  0  0  0  0  0  0  0  0  0
    7.2302    2.9743   -2.8769 C   0  0  3  0  0  0  0  0  0  0  0  0
    8.2447    3.1802   -3.8619 O   0  0  0  0  0  0  0  0  0  0  0  0
    8.7995    2.9547   -1.0168 O   0  0  0  0  0  0  0  0  0  0  0  0
    6.2474    1.9949   -0.1540 N   0  0  0  0  0  0  0  0  0  0  0  0
    4.7616    6.3935   -4.7696 H   0  0  0  0  0  0  0  0  0  0  0  0
    3.9743    5.2079   -3.9292 H   0  0  0  0  0  0  0  0  0  0  0  0
    6.2971    5.6878   -3.2114 H   0  0  0  0  0  0  0  0  0  0  0  0
    6.7725    4.9838   -4.7638 H   0  0  0  0  0  0  0  0  0  0  0  0
    5.5440    2.8883   -4.1698 H   0  0  0  0  0  0  0  0  0  0  0  0
    5.3835    5.1928   -1.2181 H   0  0  0  0  0  0  0  0  0  0  0  0
    3.0642    5.6577   -0.5233 H   0  0  0  0  0  0  0  0  0  0  0  0
    2.4138    3.4586    1.3155 H   0  0  0  0  0  0  0  0  0  0  0  0
    0.9208    6.1161    0.9000 H   0  0  0  0  0  0  0  0  0  0  0  0
    2.2848    5.8706    2.0161 H   0  0  0  0  0  0  0  0  0  0  0  0
    0.8892    2.8844    2.8772 H   0  0  0  0  0  0  0  0  0  0  0  0
   -1.4515    1.7262    3.9248 H   0  0  0  0  0  0  0  0  0  0  0  0
   -2.7736    2.7220    3.3074 H   0  0  0  0  0  0  0  0  0  0  0  0
   -0.8544    2.3787    6.6083 H   0  0  0  0  0  0  0  0  0  0  0  0
   -5.5688    3.3707    4.6865 H   0  0  0  0  0  0  0  0  0  0  0  0
   -3.9072    6.1962    3.2021 H   0  0  0  0  0  0  0  0  0  0  0  0
   -4.5675    4.8216    2.6453 H   0  0  0  0  0  0  0  0  0  0  0  0
    0.2761    3.2244   -1.9572 H   0  0  0  0  0  0  0  0  0  0  0  0
    2.4046    4.6422   -2.6312 H   0  0  0  0  0  0  0  0  0  0  0  0
    2.2629    2.1253   -1.2586 H   0  0  0  0  0  0  0  0  0  0  0  0
   -1.7582    5.9839   -0.7365 H   0  0  0  0  0  0  0  0  0  0  0  0
   -1.0171    4.3161    0.8966 H   0  0  0  0  0  0  0  0  0  0  0  0
   -3.6697    4.6025    0.1315 H   0  0  0  0  0  0  0  0  0  0  0  0
   -0.7612    2.1767   -0.4437 H   0  0  0  0  0  0  0  0  0  0  0  0
   -2.8509    2.4006    1.4636 H   0  0  0  0  0  0  0  0  0  0  0  0
   -1.3166    1.8893    1.6750 H   0  0  0  0  0  0  0  0  0  0  0  0
   -3.7184    2.4290   -0.9464 H   0  0  0  0  0  0  0  0  0  0  0  0
   -2.6161    1.1575   -1.4701 H   0  0  0  0  0  0  0  0  0  0  0  0
   -1.3806    2.7704   -2.9246 H   0  0  0  0  0  0  0  0  0  0  0  0
   -3.4238    4.8231   -1.9572 H   0  0  0  0  0  0  0  0  0  0  0  0
   -1.3169    7.0116   -2.3948 H   0  0  0  0  0  0  0  0  0  0  0  0
   -4.6797    6.5755   -3.9182 H   0  0  0  0  0  0  0  0  0  0  0  0
   -5.8902    7.6202   -2.0886 H   0  0  0  0  0  0  0  0  0  0  0  0
   -6.3372    8.4380   -3.5922 H   0  0  0  0  0  0  0  0  0  0  0  0
   -4.5107    9.3741   -1.4921 H   0  0  0  0  0  0  0  0  0  0  0  0
   -5.9928    9.9439   -1.8167 H   0  0  0  0  0  0  0  0  0  0  0  0
   -4.6580    8.4026   -5.5993 H   0  0  0  0  0  0  0  0  0  0  0  0
   -2.8700    6.6632   -5.8282 H   0  0  0  0  0  0  0  0  0  0  0  0
   -1.3050    8.6287   -4.0643 H   0  0  0  0  0  0  0  0  0  0  0  0
   -0.3719    6.0520   -5.0414 H   0  0  0  0  0  0  0  0  0  0  0  0
    0.4483    7.1112   -4.1144 H   0  0  0  0  0  0  0  0  0  0  0  0
   -2.1147    9.3584   -6.2526 H   0  0  0  0  0  0  0  0  0  0  0  0
   -3.7019    9.8837   -3.6283 H   0  0  0  0  0  0  0  0  0  0  0  0
   -4.2680    2.6112   -3.1914 H   0  0  0  0  0  0  0  0  0  0  0  0
   -3.1445    1.5761   -3.7123 H   0  0  0  0  0  0  0  0  0  0  0  0
    6.7426    3.9184    0.4455 H   0  0  0  0  0  0  0  0  0  0  0  0
    7.8576    4.6384   -1.6413 H   0  0  0  0  0  0  0  0  0  0  0  0
    7.1292    1.8874   -2.7624 H   0  0  0  0  0  0  0  0  0  0  0  0
    8.9678    3.6882   -3.4506 H   0  0  0  0  0  0  0  0  0  0  0  0
    8.4931    2.1376   -0.5690 H   0  0  0  0  0  0  0  0  0  0  0  0
    5.8031    1.5432   -0.9627 H   0  0  0  0  0  0  0  0  0  0  0  0
    5.4910    1.9753    0.5390 H   0  0  0  0  0  0  0  0  0  0  0  0
  1  2  1  0  0  0  0
  1 59  1  0  0  0  0
  1 60  1  0  0  0  0
  2  3  1  0  0  0  0
  2 61  1  0  0  0  0
  2 62  1  0  0  0  0
  3  4  1  0  0  0  0
  3 55  1  0  0  0  0
  3 63  1  0  0  0  0
  4  5  1  0  0  0  0
  5  6  1  0  0  0  0
  5 53  1  0  0  0  0
  5 64  1  0  0  0  0
  6  7  1  0  0  0  0
  7  8  1  0  0  0  0
  7 29  1  0  0  0  0
  7 65  1  0  0  0  0
  8  9  1  0  0  0  0
  8 27  1  0  0  0  0
  8 66  1  0  0  0  0
  9 10  1  0  0  0  0
  9 67  1  0  0  0  0
  9 68  1  0  0  0  0
 10 11  1  0  0  0  0
 10 14  1  0  0  0  0
 11 12  2  0  0  0  0
 12 13  1  0  0  0  0
 13 14  2  0  0  0  0
 13 15  1  0  0  0  0
 14 69  1  0  0  0  0
 15 16  1  0  0  0  0
 15 70  1  0  0  0  0
 15 71  1  0  0  0  0
 16 17  1  0  0  0  0
 16 20  1  0  0  0  0
 17 18  2  0  0  0  0
 17 72  1  0  0  0  0
 18 19  1  0  0  0  0
 19 20  2  0  0  0  0
 19 25  1  0  0  0  0
 20 21  1  0  0  0  0
 21 22  1  0  0  0  0
 21 73  1  0  0  0  0
 22 23  1  0  0  0  0
 22 24  2  0  0  0  0
 23 74  1  0  0  0  0
 23 75  1  0  0  0  0
 24 25  1  0  0  0  0
 25 26  2  0  0  0  0
 27 28  1  0  0  0  0
 28 29  1  0  0  0  0
 28 31  1  0  0  0  0
 28 76  1  0  0  0  0
 29 30  1  0  0  0  0
 29 77  1  0  0  0  0
 30 78  1  0  0  0  0
 31 32  1  0  0  0  0
 32 33  1  0  0  0  0
 32 39  1  0  0  0  0
 32 79  1  0  0  0  0
 33 34  1  0  0  0  0
 33 35  1  0  0  0  0
 33 80  1  0  0  0  0
 34 81  1  0  0  0  0
 35 36  1  0  0  0  0
 35 37  1  0  0  0  0
 35 82  1  0  0  0  0
 36 83  1  0  0  0  0
 36 84  1  0  0  0  0
 37 38  1  0  0  0  0
 37 85  1  0  0  0  0
 37 86  1  0  0  0  0
 38 39  1  0  0  0  0
 38 52  1  0  0  0  0
 38 87  1  0  0  0  0
 39 40  1  0  0  0  0
 39 88  1  0  0  0  0
 40 41  1  0  0  0  0
 41 42  1  0  0  0  0
 41 48  1  0  0  0  0
 41 89  1  0  0  0  0
 42 43  1  0  0  0  0
 43 44  1  0  0  0  0
 43 46  1  0  0  0  0
 43 90  1  0  0  0  0
 44 45  1  0  0  0  0
 44 91  1  0  0  0  0
 44 92  1  0  0  0  0
 45 93  1  0  0  0  0
 45 94  1  0  0  0  0
 46 47  1  0  0  0  0
 46 51  1  0  0  0  0
 46 95  1  0  0  0  0
 47 48  1  0  0  0  0
 47 50  1  0  0  0  0
 47 96  1  0  0  0  0
 48 49  1  0  0  0  0
 48 97  1  0  0  0  0
 49 98  1  0  0  0  0
 49 99  1  0  0  0  0
 50100  1  0  0  0  0
 51101  1  0  0  0  0
 52102  1  0  0  0  0
 52103  1  0  0  0  0
 53 54  1  0  0  0  0
 53 58  1  0  0  0  0
 53104  1  0  0  0  0
 54 55  1  0  0  0  0
 54 57  1  0  0  0  0
 54105  1  0  0  0  0
 55 56  1  0  0  0  0
 55106  1  0  0  0  0
 56107  1  0  0  0  0
 57108  1  0  0  0  0
 58109  1  0  0  0  0
 58110  1  0  0  0  0
M  END
$$$$
Target_lig_755
 OpenBabel04172506213D

129135  0  0  1  0  0  0  0  0999 V2000
   -3.4617    4.1001   -3.1052 N   0  0  0  0  0  0  0  0  0  0  0  0
   -3.6587    3.4568   -1.8001 C   0  0  0  0  0  0  0  0  0  0  0  0
   -3.1519    2.0011   -1.7339 C   0  0  3  0  0  0  0  0  0  0  0  0
   -1.7414    1.9296   -1.6600 O   0  0  0  0  0  0  0  0  0  0  0  0
   -1.0424    2.1461   -2.8631 C   0  0  3  0  0  0  0  0  0  0  0  0
    0.3457    2.1851   -2.5577 O   0  0  0  0  0  0  0  0  0  0  0  0
    0.7530    3.3602   -1.8426 C   0  0  3  0  0  0  0  0  0  0  0  0
    2.2798    3.2933   -1.7913 C   0  0  3  0  0  0  0  0  0  0  0  0
    2.9277    4.4616   -2.5369 C   0  0  0  0  0  0  0  0  0  0  0  0
    2.8402    4.2992   -3.9707 N   0  0  0  0  0  0  0  0  0  0  0  0
    3.8841    3.8101   -4.6505 N   0  0  0  0  0  0  0  0  0  0  0  0
    3.4355    3.4271   -5.8352 N   0  0  0  0  0  0  0  0  0  0  0  0
    2.0926    3.6998   -5.8994 C   0  0  0  0  0  0  0  0  0  0  0  0
    1.7273    4.3721   -4.7567 C   0  0  0  0  0  0  0  0  0  0  0  0
    1.2426    3.2228   -7.0255 C   0  0  0  0  0  0  0  0  0  0  0  0
    2.0752    2.6220   -8.1457 C   0  0  0  0  0  0  0  0  0  0  0  0
    1.2675    2.0440   -9.3058 C   0  0  0  0  0  0  0  0  0  0  0  0
    2.2485    1.4954  -10.3295 C   0  0  0  0  0  0  0  0  0  0  0  0
    3.4585    1.4878  -10.1083 O   0  0  0  0  0  0  0  0  0  0  0  0
    1.6515    1.0331  -11.4845 N   0  0  0  0  0  0  0  0  0  0  0  0
    2.3357    0.4486  -12.5728 C   0  0  0  0  0  0  0  0  0  0  0  0
    3.6641    0.0307  -12.5056 C   0  0  0  0  0  0  0  0  0  0  0  0
    4.3060   -0.4911  -13.6202 C   0  0  0  0  0  0  0  0  0  0  0  0
    3.6135   -0.6054  -14.8250 C   0  0  0  0  0  0  0  0  0  0  0  0
    2.2651   -0.2243  -14.9173 C   0  0  0  0  0  0  0  0  0  0  0  0
    1.6349    0.2967  -13.7729 C   0  0  0  0  0  0  0  0  0  0  0  0
    1.5873   -0.3898  -16.2142 C   0  0  0  0  0  0  0  0  0  0  0  0
    2.2209   -0.6421  -17.3467 N   0  0  0  0  0  0  0  0  0  0  0  0
    1.3129   -0.9037  -18.3541 C   0  0  0  0  0  0  0  0  0  0  0  0
   -0.0019   -0.8137  -17.9726 C   0  0  0  0  0  0  0  0  0  0  0  0
   -0.1324   -0.3076  -16.3621 S   0  0  0  0  0  0  0  0  0  0  0  0
   -1.1942   -1.0674  -18.6019 N   0  0  0  0  0  0  0  0  0  0  0  0
   -1.2879   -2.0922  -19.5224 C   0  0  0  0  0  0  0  0  0  0  0  0
   -0.3838   -2.8606  -19.8315 O   0  0  0  0  0  0  0  0  0  0  0  0
   -2.6709   -2.2390  -20.1000 C   0  0  0  0  0  0  0  0  0  0  0  0
    2.6471    3.2808   -0.4023 O   0  0  0  0  0  0  0  0  0  0  0  0
    1.6181    3.9715    0.3148 C   0  0  3  0  0  0  0  0  0  0  0  0
    0.3337    3.5050   -0.3719 C   0  0  3  0  0  0  0  0  0  0  0  0
   -0.0097    2.2519    0.2420 O   0  0  0  0  0  0  0  0  0  0  0  0
    1.9205    5.3722    0.3372 O   0  0  0  0  0  0  0  0  0  0  0  0
    3.2045    5.5595    1.0005 C   0  0  3  0  0  0  0  0  0  0  0  0
    3.0697    5.3513    2.5452 C   0  0  3  0  0  0  0  0  0  0  0  0
    4.3727    5.1947    3.1279 O   0  0  0  0  0  0  0  0  0  0  0  0
    2.2931    6.4806    3.2549 C   0  0  3  0  0  0  0  0  0  0  0  0
    2.3608    6.3330    4.7329 N   0  0  0  0  0  0  0  0  0  0  0  0
    2.8571    7.8506    2.8729 C   0  0  0  0  0  0  0  0  0  0  0  0
    3.0620    8.0675    1.3485 C   0  0  3  0  0  0  0  0  0  0  0  0
    3.8813    6.9229    0.6714 C   0  0  3  0  0  0  0  0  0  0  0  0
    4.1260    7.0375   -0.7988 O   0  0  0  0  0  0  0  0  0  0  0  0
    5.1987    7.9478   -1.1215 C   0  0  3  0  0  0  0  0  0  0  0  0
    4.8212    9.3298   -1.1675 O   0  0  0  0  0  0  0  0  0  0  0  0
    3.9078    9.6560   -2.2339 C   0  0  3  0  0  0  0  0  0  0  0  0
    3.1867   11.0325   -1.9671 C   0  0  0  0  0  0  0  0  0  0  0  0
    3.7920   12.3711   -1.7074 N   0  0  0  0  0  0  0  0  0  0  0  0
    4.6536    9.4593   -3.5615 C   0  0  3  0  0  0  0  0  0  0  0  0
    5.0652    7.9581   -3.6744 C   0  0  3  0  0  0  0  0  0  0  0  0
    5.9118    7.5246   -2.4454 C   0  0  3  0  0  0  0  0  0  0  0  0
    6.3120    6.1162   -2.4429 N   0  0  0  0  0  0  0  0  0  0  0  0
    5.7013    7.7420   -4.9355 O   0  0  0  0  0  0  0  0  0  0  0  0
    5.8228   10.2955   -3.5540 O   0  0  0  0  0  0  0  0  0  0  0  0
    3.7333    9.3761    1.2300 N   0  0  0  0  0  0  0  0  0  0  0  0
   -1.3368    0.9924   -3.8628 C   0  0  3  0  0  0  0  0  0  0  0  0
   -2.8631    0.8879   -4.0679 C   0  0  3  0  0  0  0  0  0  0  0  0
   -3.7208    1.0309   -2.7739 C   0  0  3  0  0  0  0  0  0  0  0  0
   -5.0889    1.3848   -3.0604 O   0  0  0  0  0  0  0  0  0  0  0  0
   -3.1505   -0.3946   -4.6838 O   0  0  0  0  0  0  0  0  0  0  0  0
   -0.7453   -0.3556   -3.5412 N   0  0  0  0  0  0  0  0  0  0  0  0
   -3.7203    5.0859   -3.0142 H   0  0  0  0  0  0  0  0  0  0  0  0
   -4.1250    3.6844   -3.7567 H   0  0  0  0  0  0  0  0  0  0  0  0
   -4.7295    3.4837   -1.5680 H   0  0  0  0  0  0  0  0  0  0  0  0
   -3.1446    4.0526   -1.0379 H   0  0  0  0  0  0  0  0  0  0  0  0
   -3.4940    1.6424   -0.7548 H   0  0  0  0  0  0  0  0  0  0  0  0
   -1.2999    3.0980   -3.3369 H   0  0  0  0  0  0  0  0  0  0  0  0
    0.4158    4.2552   -2.3763 H   0  0  0  0  0  0  0  0  0  0  0  0
    2.6586    2.3528   -2.2072 H   0  0  0  0  0  0  0  0  0  0  0  0
    3.9812    4.4903   -2.2658 H   0  0  0  0  0  0  0  0  0  0  0  0
    2.4963    5.4343   -2.2814 H   0  0  0  0  0  0  0  0  0  0  0  0
    0.7861    4.7684   -4.4171 H   0  0  0  0  0  0  0  0  0  0  0  0
    0.6316    4.0485   -7.4061 H   0  0  0  0  0  0  0  0  0  0  0  0
    0.5548    2.4610   -6.6370 H   0  0  0  0  0  0  0  0  0  0  0  0
    2.7078    1.8241   -7.7319 H   0  0  0  0  0  0  0  0  0  0  0  0
    2.7592    3.3911   -8.5309 H   0  0  0  0  0  0  0  0  0  0  0  0
    0.6456    2.8149   -9.7700 H   0  0  0  0  0  0  0  0  0  0  0  0
    0.6251    1.2269   -8.9598 H   0  0  0  0  0  0  0  0  0  0  0  0
    0.6739    1.2393  -11.6276 H   0  0  0  0  0  0  0  0  0  0  0  0
    4.2404    0.0925  -11.5903 H   0  0  0  0  0  0  0  0  0  0  0  0
    5.3425   -0.7985  -13.5457 H   0  0  0  0  0  0  0  0  0  0  0  0
    4.1258   -1.0144  -15.6865 H   0  0  0  0  0  0  0  0  0  0  0  0
    0.5995    0.6166  -13.8085 H   0  0  0  0  0  0  0  0  0  0  0  0
    1.6761   -1.1479  -19.3446 H   0  0  0  0  0  0  0  0  0  0  0  0
   -2.0315   -0.7555  -18.1298 H   0  0  0  0  0  0  0  0  0  0  0  0
   -3.2939   -1.3681  -19.8784 H   0  0  0  0  0  0  0  0  0  0  0  0
   -3.1458   -3.1310  -19.6827 H   0  0  0  0  0  0  0  0  0  0  0  0
   -2.5877   -2.3347  -21.1853 H   0  0  0  0  0  0  0  0  0  0  0  0
    1.5860    3.5867    1.3351 H   0  0  0  0  0  0  0  0  0  0  0  0
   -0.5099    4.1910   -0.2474 H   0  0  0  0  0  0  0  0  0  0  0  0
    0.7516    1.6588    0.1142 H   0  0  0  0  0  0  0  0  0  0  0  0
    3.9098    4.8143    0.6184 H   0  0  0  0  0  0  0  0  0  0  0  0
    2.5468    4.4206    2.7785 H   0  0  0  0  0  0  0  0  0  0  0  0
    4.6953    6.0684    3.3968 H   0  0  0  0  0  0  0  0  0  0  0  0
    1.2358    6.4454    2.9650 H   0  0  0  0  0  0  0  0  0  0  0  0
    3.2860    5.9841    5.0032 H   0  0  0  0  0  0  0  0  0  0  0  0
    1.7400    5.5754    5.0300 H   0  0  0  0  0  0  0  0  0  0  0  0
    3.8160    8.0025    3.3889 H   0  0  0  0  0  0  0  0  0  0  0  0
    2.1849    8.6277    3.2664 H   0  0  0  0  0  0  0  0  0  0  0  0
    2.0842    8.1460    0.8567 H   0  0  0  0  0  0  0  0  0  0  0  0
    4.8696    6.8854    1.1464 H   0  0  0  0  0  0  0  0  0  0  0  0
    5.9590    7.8590   -0.3367 H   0  0  0  0  0  0  0  0  0  0  0  0
    3.0896    8.9209   -2.2055 H   0  0  0  0  0  0  0  0  0  0  0  0
    2.5627   10.8585   -1.0821 H   0  0  0  0  0  0  0  0  0  0  0  0
    2.4915   11.1858   -2.8001 H   0  0  0  0  0  0  0  0  0  0  0  0
    4.5124   12.2536   -0.9899 H   0  0  0  0  0  0  0  0  0  0  0  0
    4.2675   12.7053   -2.5417 H   0  0  0  0  0  0  0  0  0  0  0  0
    4.0409    9.7472   -4.4218 H   0  0  0  0  0  0  0  0  0  0  0  0
    4.1513    7.3510   -3.7040 H   0  0  0  0  0  0  0  0  0  0  0  0
    6.8517    8.0852   -2.5101 H   0  0  0  0  0  0  0  0  0  0  0  0
    5.5731    5.4535   -2.2281 H   0  0  0  0  0  0  0  0  0  0  0  0
    7.0754    5.9222   -1.7975 H   0  0  0  0  0  0  0  0  0  0  0  0
    6.6431    7.9834   -4.9293 H   0  0  0  0  0  0  0  0  0  0  0  0
    6.3162   10.0542   -2.7493 H   0  0  0  0  0  0  0  0  0  0  0  0
    4.6275    9.3407    1.7201 H   0  0  0  0  0  0  0  0  0  0  0  0
    3.1789   10.0695    1.7453 H   0  0  0  0  0  0  0  0  0  0  0  0
   -0.8785    1.2528   -4.8271 H   0  0  0  0  0  0  0  0  0  0  0  0
   -3.1781    1.6552   -4.7862 H   0  0  0  0  0  0  0  0  0  0  0  0
   -3.7465    0.0366   -2.3095 H   0  0  0  0  0  0  0  0  0  0  0  0
   -5.0425    2.1126   -3.7068 H   0  0  0  0  0  0  0  0  0  0  0  0
   -2.6264   -0.5103   -5.5024 H   0  0  0  0  0  0  0  0  0  0  0  0
   -0.9851   -0.5520   -2.5696 H   0  0  0  0  0  0  0  0  0  0  0  0
    0.2689   -0.2187   -3.5216 H   0  0  0  0  0  0  0  0  0  0  0  0
  1  2  1  0  0  0  0
  1 68  1  0  0  0  0
  1 69  1  0  0  0  0
  2  3  1  0  0  0  0
  2 70  1  0  0  0  0
  2 71  1  0  0  0  0
  3  4  1  0  0  0  0
  3 64  1  0  0  0  0
  3 72  1  0  0  0  0
  4  5  1  0  0  0  0
  5  6  1  0  0  0  0
  5 62  1  0  0  0  0
  5 73  1  0  0  0  0
  6  7  1  0  0  0  0
  7  8  1  0  0  0  0
  7 38  1  0  0  0  0
  7 74  1  0  0  0  0
  8  9  1  0  0  0  0
  8 36  1  0  0  0  0
  8 75  1  0  0  0  0
  9 10  1  0  0  0  0
  9 76  1  0  0  0  0
  9 77  1  0  0  0  0
 10 11  1  0  0  0  0
 10 14  1  0  0  0  0
 11 12  2  0  0  0  0
 12 13  1  0  0  0  0
 13 14  2  0  0  0  0
 13 15  1  0  0  0  0
 14 78  1  0  0  0  0
 15 16  1  0  0  0  0
 15 79  1  0  0  0  0
 15 80  1  0  0  0  0
 16 17  1  0  0  0  0
 16 81  1  0  0  0  0
 16 82  1  0  0  0  0
 17 18  1  0  0  0  0
 17 83  1  0  0  0  0
 17 84  1  0  0  0  0
 18 19  2  0  0  0  0
 18 20  1  0  0  0  0
 20 21  1  0  0  0  0
 20 85  1  0  0  0  0
 21 22  1  0  0  0  0
 21 26  2  0  0  0  0
 22 23  2  0  0  0  0
 22 86  1  0  0  0  0
 23 24  1  0  0  0  0
 23 87  1  0  0  0  0
 24 25  2  0  0  0  0
 24 88  1  0  0  0  0
 25 26  1  0  0  0  0
 25 27  1  0  0  0  0
 26 89  1  0  0  0  0
 27 28  2  0  0  0  0
 27 31  1  0  0  0  0
 28 29  1  0  0  0  0
 29 30  2  0  0  0  0
 29 90  1  0  0  0  0
 30 31  1  0  0  0  0
 30 32  1  0  0  0  0
 32 33  1  0  0  0  0
 32 91  1  0  0  0  0
 33 34  2  0  0  0  0
 33 35  1  0  0  0  0
 35 92  1  0  0  0  0
 35 93  1  0  0  0  0
 35 94  1  0  0  0  0
 36 37  1  0  0  0  0
 37 38  1  0  0  0  0
 37 40  1  0  0  0  0
 37 95  1  0  0  0  0
 38 39  1  0  0  0  0
 38 96  1  0  0  0  0
 39 97  1  0  0  0  0
 40 41  1  0  0  0  0
 41 42  1  0  0  0  0
 41 48  1  0  0  0  0
 41 98  1  0  0  0  0
 42 43  1  0  0  0  0
 42 44  1  0  0  0  0
 42 99  1  0  0  0  0
 43100  1  0  0  0  0
 44 45  1  0  0  0  0
 44 46  1  0  0  0  0
 44101  1  0  0  0  0
 45102  1  0  0  0  0
 45103  1  0  0  0  0
 46 47  1  0  0  0  0
 46104  1  0  0  0  0
 46105  1  0  0  0  0
 47 48  1  0  0  0  0
 47 61  1  0  0  0  0
 47106  1  0  0  0  0
 48 49  1  0  0  0  0
 48107  1  0  0  0  0
 49 50  1  0  0  0  0
 50 51  1  0  0  0  0
 50 57  1  0  0  0  0
 50108  1  0  0  0  0
 51 52  1  0  0  0  0
 52 53  1  0  0  0  0
 52 55  1  0  0  0  0
 52109  1  0  0  0  0
 53 54  1  0  0  0  0
 53110  1  0  0  0  0
 53111  1  0  0  0  0
 54112  1  0  0  0  0
 54113  1  0  0  0  0
 55 56  1  0  0  0  0
 55 60  1  0  0  0  0
 55114  1  0  0  0  0
 56 57  1  0  0  0  0
 56 59  1  0  0  0  0
 56115  1  0  0  0  0
 57 58  1  0  0  0  0
 57116  1  0  0  0  0
 58117  1  0  0  0  0
 58118  1  0  0  0  0
 59119  1  0  0  0  0
 60120  1  0  0  0  0
 61121  1  0  0  0  0
 61122  1  0  0  0  0
 62 63  1  0  0  0  0
 62 67  1  0  0  0  0
 62123  1  0  0  0  0
 63 64  1  0  0  0  0
 63 66  1  0  0  0  0
 63124  1  0  0  0  0
 64 65  1  0  0  0  0
 64125  1  0  0  0  0
 65126  1  0  0  0  0
 66127  1  0  0  0  0
 67128  1  0  0  0  0
 67129  1  0  0  0  0
M  END
$$$$
Target_lig_756
 OpenBabel04172506213D

124131  0  0  1  0  0  0  0  0999 V2000
    8.2334   -4.3020   -4.7779 N   0  0  0  0  0  0  0  0  0  0  0  0
    7.8582   -3.4938   -3.6156 C   0  0  0  0  0  0  0  0  0  0  0  0
    6.3325   -3.4499   -3.3768 C   0  0  3  0  0  0  0  0  0  0  0  0
    6.0588   -2.5250   -2.3331 O   0  0  0  0  0  0  0  0  0  0  0  0
    6.4244   -2.9545   -1.0348 C   0  0  3  0  0  0  0  0  0  0  0  0
    5.9920   -1.9620   -0.1364 O   0  0  0  0  0  0  0  0  0  0  0  0
    6.7219   -0.7525   -0.1737 C   0  0  3  0  0  0  0  0  0  0  0  0
    6.0475    0.0286    0.9251 C   0  0  3  0  0  0  0  0  0  0  0  0
    6.8559   -0.0434    2.2002 C   0  0  0  0  0  0  0  0  0  0  0  0
    7.1483   -1.2625    2.9306 N   0  0  0  0  0  0  0  0  0  0  0  0
    8.0329   -2.1506    2.4320 N   0  0  0  0  0  0  0  0  0  0  0  0
    8.6835   -2.7038    3.4538 N   0  0  0  0  0  0  0  0  0  0  0  0
    8.2262   -2.1561    4.6416 C   0  0  0  0  0  0  0  0  0  0  0  0
    7.1691   -1.3244    4.3145 C   0  0  0  0  0  0  0  0  0  0  0  0
    8.9236   -2.4891    5.9592 C   0  0  0  0  0  0  0  0  0  0  0  0
    8.6558   -1.6190    7.1853 C   0  0  0  0  0  0  0  0  0  0  0  0
    9.4274   -1.3425    8.2440 N   0  0  0  0  0  0  0  0  0  0  0  0
    8.7372   -0.3409    8.9377 C   0  0  0  0  0  0  0  0  0  0  0  0
    7.5290   -0.1363    8.2963 C   0  0  0  0  0  0  0  0  0  0  0  0
    7.4498   -0.9794    7.2295 O   0  0  0  0  0  0  0  0  0  0  0  0
    6.6277    0.8661    8.5933 C   0  0  0  0  0  0  0  0  0  0  0  0
    6.9722    1.7311    9.6316 C   0  0  0  0  0  0  0  0  0  0  0  0
    8.1086    1.5363   10.4332 C   0  0  0  0  0  0  0  0  0  0  0  0
    9.0224    0.4959   10.0656 C   0  0  0  0  0  0  0  0  0  0  0  0
    8.3505    2.3915   11.5722 N   0  0  0  0  0  0  0  0  0  0  0  0
    7.3927    3.2399   12.1751 C   0  0  0  0  0  0  0  0  0  0  0  0
    6.2150    3.2902   11.8415 O   0  0  0  0  0  0  0  0  0  0  0  0
    7.9291    4.0363   13.1896 N   0  0  0  0  0  0  0  0  0  0  0  0
    7.2197    4.9617   14.0282 C   0  0  0  0  0  0  0  0  0  0  0  0
    5.8209    5.0607   14.0865 C   0  0  0  0  0  0  0  0  0  0  0  0
    5.1859    5.9835   14.9381 C   0  0  0  0  0  0  0  0  0  0  0  0
    5.9388    6.8286   15.7482 C   0  0  0  0  0  0  0  0  0  0  0  0
    7.3230    6.7459   15.7170 C   0  0  0  0  0  0  0  0  0  0  0  0
    7.9580    5.8125   14.8586 C   0  0  0  0  0  0  0  0  0  0  0  0
    5.9325    1.4034    0.4812 O   0  0  0  0  0  0  0  0  0  0  0  0
    6.6855    1.5710   -0.7395 C   0  0  3  0  0  0  0  0  0  0  0  0
    6.6064    0.1758   -1.3833 C   0  0  3  0  0  0  0  0  0  0  0  0
    5.3016    0.0829   -1.9909 O   0  0  0  0  0  0  0  0  0  0  0  0
    7.9710    2.1489   -0.4416 O   0  0  0  0  0  0  0  0  0  0  0  0
    7.7952    3.4847    0.1301 C   0  0  3  0  0  0  0  0  0  0  0  0
    7.4054    4.5555   -0.9063 C   0  0  3  0  0  0  0  0  0  0  0  0
    6.7922    5.6624   -0.2077 O   0  0  0  0  0  0  0  0  0  0  0  0
    8.5948    5.0249   -1.7706 C   0  0  3  0  0  0  0  0  0  0  0  0
    8.1950    6.1938   -2.5729 N   0  0  0  0  0  0  0  0  0  0  0  0
    9.8112    5.4399   -0.9417 C   0  0  0  0  0  0  0  0  0  0  0  0
   10.2265    4.3837    0.0909 C   0  0  3  0  0  0  0  0  0  0  0  0
    9.0070    4.0073    0.9883 C   0  0  3  0  0  0  0  0  0  0  0  0
    9.3963    3.1385    2.0669 O   0  0  0  0  0  0  0  0  0  0  0  0
    8.3083    2.8192    2.9506 C   0  0  3  0  0  0  0  0  0  0  0  0
    7.5826    3.9502    3.4398 O   0  0  0  0  0  0  0  0  0  0  0  0
    7.8651    4.3332    4.7940 C   0  0  3  0  0  0  0  0  0  0  0  0
    6.8359    5.3625    5.2730 C   0  0  0  0  0  0  0  0  0  0  0  0
    5.5043    4.7431    5.3501 N   0  0  0  0  0  0  0  0  0  0  0  0
    7.8590    3.1600    5.7726 C   0  0  3  0  0  0  0  0  0  0  0  0
    9.0315    2.2881    5.3759 C   0  0  3  0  0  0  0  0  0  0  0  0
    8.7654    1.7240    3.9902 C   0  0  3  0  0  0  0  0  0  0  0  0
    9.8654    0.8273    3.6022 N   0  0  0  0  0  0  0  0  0  0  0  0
    9.1024    1.2453    6.3265 O   0  0  0  0  0  0  0  0  0  0  0  0
    6.6324    2.3964    5.6928 O   0  0  0  0  0  0  0  0  0  0  0  0
   11.3832    4.9415    0.8352 N   0  0  0  0  0  0  0  0  0  0  0  0
    5.6663   -4.2431   -0.6497 C   0  0  3  0  0  0  0  0  0  0  0  0
    5.9345   -5.3163   -1.7139 C   0  0  3  0  0  0  0  0  0  0  0  0
    5.6100   -4.7845   -3.1202 C   0  0  3  0  0  0  0  0  0  0  0  0
    5.8879   -5.7512   -4.1331 O   0  0  0  0  0  0  0  0  0  0  0  0
    5.1306   -6.4642   -1.4073 O   0  0  0  0  0  0  0  0  0  0  0  0
    4.1888   -3.9981   -0.5076 N   0  0  0  0  0  0  0  0  0  0  0  0
    9.2480   -4.2457   -4.8917 H   0  0  0  0  0  0  0  0  0  0  0  0
    7.8488   -3.8627   -5.6187 H   0  0  0  0  0  0  0  0  0  0  0  0
    8.2204   -2.4655   -3.7526 H   0  0  0  0  0  0  0  0  0  0  0  0
    8.3853   -3.8754   -2.7355 H   0  0  0  0  0  0  0  0  0  0  0  0
    5.8891   -3.0081   -4.2781 H   0  0  0  0  0  0  0  0  0  0  0  0
    7.5058   -3.0986   -0.9298 H   0  0  0  0  0  0  0  0  0  0  0  0
    7.7849   -0.9366    0.0296 H   0  0  0  0  0  0  0  0  0  0  0  0
    5.0253   -0.3124    1.1263 H   0  0  0  0  0  0  0  0  0  0  0  0
    6.3650    0.6371    2.9013 H   0  0  0  0  0  0  0  0  0  0  0  0
    7.8376    0.3567    1.9341 H   0  0  0  0  0  0  0  0  0  0  0  0
    6.5791   -0.6420    4.9050 H   0  0  0  0  0  0  0  0  0  0  0  0
   10.0071   -2.4643    5.7625 H   0  0  0  0  0  0  0  0  0  0  0  0
    8.6770   -3.5266    6.2118 H   0  0  0  0  0  0  0  0  0  0  0  0
    5.7693    1.0548    7.9550 H   0  0  0  0  0  0  0  0  0  0  0  0
    6.3203    2.5861    9.7758 H   0  0  0  0  0  0  0  0  0  0  0  0
    9.9591    0.3491   10.5971 H   0  0  0  0  0  0  0  0  0  0  0  0
    9.1992    2.2089   12.0876 H   0  0  0  0  0  0  0  0  0  0  0  0
    8.9337    4.0756   13.2485 H   0  0  0  0  0  0  0  0  0  0  0  0
    5.1768    4.4218   13.4897 H   0  0  0  0  0  0  0  0  0  0  0  0
    4.1013    6.0414   14.9595 H   0  0  0  0  0  0  0  0  0  0  0  0
    5.4449    7.5463   16.4034 H   0  0  0  0  0  0  0  0  0  0  0  0
    7.9237    7.4028   16.3454 H   0  0  0  0  0  0  0  0  0  0  0  0
    9.0489    5.7869   14.8635 H   0  0  0  0  0  0  0  0  0  0  0  0
    6.1383    2.2546   -1.3936 H   0  0  0  0  0  0  0  0  0  0  0  0
    7.3613   -0.0222   -2.1502 H   0  0  0  0  0  0  0  0  0  0  0  0
    4.6549    0.3538   -1.3129 H   0  0  0  0  0  0  0  0  0  0  0  0
    6.9448    3.4331    0.8147 H   0  0  0  0  0  0  0  0  0  0  0  0
    6.6352    4.1854   -1.5881 H   0  0  0  0  0  0  0  0  0  0  0  0
    7.4575    6.0875    0.3584 H   0  0  0  0  0  0  0  0  0  0  0  0
    8.8955    4.2177   -2.4490 H   0  0  0  0  0  0  0  0  0  0  0  0
    7.6120    6.7808   -1.9651 H   0  0  0  0  0  0  0  0  0  0  0  0
    7.5735    5.9034   -3.3323 H   0  0  0  0  0  0  0  0  0  0  0  0
    9.5969    6.3856   -0.4218 H   0  0  0  0  0  0  0  0  0  0  0  0
   10.6550    5.6469   -1.6141 H   0  0  0  0  0  0  0  0  0  0  0  0
   10.5802    3.4743   -0.4088 H   0  0  0  0  0  0  0  0  0  0  0  0
    8.6932    4.9396    1.4735 H   0  0  0  0  0  0  0  0  0  0  0  0
    7.5781    2.3185    2.3266 H   0  0  0  0  0  0  0  0  0  0  0  0
    8.8530    4.8094    4.7919 H   0  0  0  0  0  0  0  0  0  0  0  0
    6.7992    6.2143    4.5890 H   0  0  0  0  0  0  0  0  0  0  0  0
    7.1171    5.7199    6.2695 H   0  0  0  0  0  0  0  0  0  0  0  0
    5.2516    4.5058    4.3847 H   0  0  0  0  0  0  0  0  0  0  0  0
    4.8348    5.4430    5.6676 H   0  0  0  0  0  0  0  0  0  0  0  0
    7.9608    3.4771    6.8145 H   0  0  0  0  0  0  0  0  0  0  0  0
    9.9756    2.8368    5.4050 H   0  0  0  0  0  0  0  0  0  0  0  0
    7.9020    1.0864    4.1447 H   0  0  0  0  0  0  0  0  0  0  0  0
   10.5306    1.3675    3.0438 H   0  0  0  0  0  0  0  0  0  0  0  0
    9.5520    0.0669    3.0046 H   0  0  0  0  0  0  0  0  0  0  0  0
    8.2577    0.7615    6.2466 H   0  0  0  0  0  0  0  0  0  0  0  0
    5.9189    3.0685    5.8215 H   0  0  0  0  0  0  0  0  0  0  0  0
   11.2148    5.9132    1.1036 H   0  0  0  0  0  0  0  0  0  0  0  0
   12.1982    4.9926    0.2153 H   0  0  0  0  0  0  0  0  0  0  0  0
    5.9942   -4.5965    0.3361 H   0  0  0  0  0  0  0  0  0  0  0  0
    6.9784   -5.6438   -1.6644 H   0  0  0  0  0  0  0  0  0  0  0  0
    4.5284   -4.6046   -3.1700 H   0  0  0  0  0  0  0  0  0  0  0  0
    6.8202   -5.6079   -4.4005 H   0  0  0  0  0  0  0  0  0  0  0  0
    4.2495   -6.0969   -1.1891 H   0  0  0  0  0  0  0  0  0  0  0  0
    3.9122   -3.3884   -1.2850 H   0  0  0  0  0  0  0  0  0  0  0  0
    4.0918   -3.3682    0.2961 H   0  0  0  0  0  0  0  0  0  0  0  0
  1  2  1  0  0  0  0
  1 67  1  0  0  0  0
  1 68  1  0  0  0  0
  2  3  1  0  0  0  0
  2 69  1  0  0  0  0
  2 70  1  0  0  0  0
  3  4  1  0  0  0  0
  3 63  1  0  0  0  0
  3 71  1  0  0  0  0
  4  5  1  0  0  0  0
  5  6  1  0  0  0  0
  5 61  1  0  0  0  0
  5 72  1  0  0  0  0
  6  7  1  0  0  0  0
  7  8  1  0  0  0  0
  7 37  1  0  0  0  0
  7 73  1  0  0  0  0
  8  9  1  0  0  0  0
  8 35  1  0  0  0  0
  8 74  1  0  0  0  0
  9 10  1  0  0  0  0
  9 75  1  0  0  0  0
  9 76  1  0  0  0  0
 10 11  1  0  0  0  0
 10 14  1  0  0  0  0
 11 12  2  0  0  0  0
 12 13  1  0  0  0  0
 13 14  2  0  0  0  0
 13 15  1  0  0  0  0
 14 77  1  0  0  0  0
 15 16  1  0  0  0  0
 15 78  1  0  0  0  0
 15 79  1  0  0  0  0
 16 17  2  0  0  0  0
 16 20  1  0  0  0  0
 17 18  1  0  0  0  0
 18 19  1  0  0  0  0
 18 24  2  0  0  0  0
 19 20  1  0  0  0  0
 19 21  2  0  0  0  0
 21 22  1  0  0  0  0
 21 80  1  0  0  0  0
 22 23  2  0  0  0  0
 22 81  1  0  0  0  0
 23 24  1  0  0  0  0
 23 25  1  0  0  0  0
 24 82  1  0  0  0  0
 25 26  1  0  0  0  0
 25 83  1  0  0  0  0
 26 27  2  0  0  0  0
 26 28  1  0  0  0  0
 28 29  1  0  0  0  0
 28 84  1  0  0  0  0
 29 30  1  0  0  0  0
 29 34  2  0  0  0  0
 30 31  2  0  0  0  0
 30 85  1  0  0  0  0
 31 32  1  0  0  0  0
 31 86  1  0  0  0  0
 32 33  2  0  0  0  0
 32 87  1  0  0  0  0
 33 34  1  0  0  0  0
 33 88  1  0  0  0  0
 34 89  1  0  0  0  0
 35 36  1  0  0  0  0
 36 37  1  0  0  0  0
 36 39  1  0  0  0  0
 36 90  1  0  0  0  0
 37 38  1  0  0  0  0
 37 91  1  0  0  0  0
 38 92  1  0  0  0  0
 39 40  1  0  0  0  0
 40 41  1  0  0  0  0
 40 47  1  0  0  0  0
 40 93  1  0  0  0  0
 41 42  1  0  0  0  0
 41 43  1  0  0  0  0
 41 94  1  0  0  0  0
 42 95  1  0  0  0  0
 43 44  1  0  0  0  0
 43 45  1  0  0  0  0
 43 96  1  0  0  0  0
 44 97  1  0  0  0  0
 44 98  1  0  0  0  0
 45 46  1  0  0  0  0
 45 99  1  0  0  0  0
 45100  1  0  0  0  0
 46 47  1  0  0  0  0
 46 60  1  0  0  0  0
 46101  1  0  0  0  0
 47 48  1  0  0  0  0
 47102  1  0  0  0  0
 48 49  1  0  0  0  0
 49 50  1  0  0  0  0
 49 56  1  0  0  0  0
 49103  1  0  0  0  0
 50 51  1  0  0  0  0
 51 52  1  0  0  0  0
 51 54  1  0  0  0  0
 51104  1  0  0  0  0
 52 53  1  0  0  0  0
 52105  1  0  0  0  0
 52106  1  0  0  0  0
 53107  1  0  0  0  0
 53108  1  0  0  0  0
 54 55  1  0  0  0  0
 54 59  1  0  0  0  0
 54109  1  0  0  0  0
 55 56  1  0  0  0  0
 55 58  1  0  0  0  0
 55110  1  0  0  0  0
 56 57  1  0  0  0  0
 56111  1  0  0  0  0
 57112  1  0  0  0  0
 57113  1  0  0  0  0
 58114  1  0  0  0  0
 59115  1  0  0  0  0
 60116  1  0  0  0  0
 60117  1  0  0  0  0
 61 62  1  0  0  0  0
 61 66  1  0  0  0  0
 61118  1  0  0  0  0
 62 63  1  0  0  0  0
 62 65  1  0  0  0  0
 62119  1  0  0  0  0
 63 64  1  0  0  0  0
 63120  1  0  0  0  0
 64121  1  0  0  0  0
 65122  1  0  0  0  0
 66123  1  0  0  0  0
 66124  1  0  0  0  0
M  END
$$$$
Target_lig_757
 OpenBabel04172506213D

126132  0  0  1  0  0  0  0  0999 V2000
   24.4231   -8.9365   -4.1494 C   0  0  0  0  0  0  0  0  0  0  0  0
   23.8121  -10.2396   -3.6610 C   0  0  0  0  0  0  0  0  0  0  0  0
   22.5295  -10.5783   -4.4214 C   0  0  0  0  0  0  0  0  0  0  0  0
   21.9280  -11.9107   -3.9742 C   0  0  0  0  0  0  0  0  0  0  0  0
   21.4877  -11.8960   -2.5927 N   0  0  0  0  0  0  0  0  0  0  0  0
   20.2634  -11.3916   -2.2620 C   0  0  0  0  0  0  0  0  0  0  0  0
   19.5157  -10.9094   -3.0997 O   0  0  0  0  0  0  0  0  0  0  0  0
   20.0056  -11.5271   -0.9105 N   0  0  0  0  0  0  0  0  0  0  0  0
   18.7754  -11.2021   -0.2903 C   0  0  0  0  0  0  0  0  0  0  0  0
   17.5800  -11.2155   -1.0134 C   0  0  0  0  0  0  0  0  0  0  0  0
   16.3774  -10.7892   -0.4613 C   0  0  0  0  0  0  0  0  0  0  0  0
   16.4469  -10.3953    0.8586 C   0  0  0  0  0  0  0  0  0  0  0  0
   17.5766  -10.4259    1.6354 C   0  0  0  0  0  0  0  0  0  0  0  0
   18.7890  -10.8650    1.0703 C   0  0  0  0  0  0  0  0  0  0  0  0
   17.2993   -9.9728    2.9091 N   0  0  0  0  0  0  0  0  0  0  0  0
   16.0027   -9.7008    2.8549 C   0  0  0  0  0  0  0  0  0  0  0  0
   15.4197   -9.9215    1.6353 O   0  0  0  0  0  0  0  0  0  0  0  0
   15.1065   -9.2220    3.9483 C   0  0  0  0  0  0  0  0  0  0  0  0
   15.2378   -7.7765    4.2628 C   0  0  0  0  0  0  0  0  0  0  0  0
   14.2553   -6.8738    3.9499 N   0  0  0  0  0  0  0  0  0  0  0  0
   14.5881   -5.7039    4.4789 N   0  0  0  0  0  0  0  0  0  0  0  0
   15.7732   -5.8405    5.0795 N   0  0  0  0  0  0  0  0  0  0  0  0
   16.2198   -7.1227    4.9789 C   0  0  0  0  0  0  0  0  0  0  0  0
   16.4814   -4.7225    5.6554 C   0  0  0  0  0  0  0  0  0  0  0  0
   15.6877   -3.7062    6.4960 C   0  0  3  0  0  0  0  0  0  0  0  0
   15.1083   -4.4310    7.6150 O   0  0  0  0  0  0  0  0  0  0  0  0
   13.6842   -4.4652    7.4008 C   0  0  3  0  0  0  0  0  0  0  0  0
   13.3964   -3.0500    6.8761 C   0  0  3  0  0  0  0  0  0  0  0  0
   14.5928   -2.7480    5.9380 C   0  0  3  0  0  0  0  0  0  0  0  0
   14.2418   -2.8175    4.5490 O   0  0  0  0  0  0  0  0  0  0  0  0
   15.3083   -2.4823    3.6436 C   0  0  3  0  0  0  0  0  0  0  0  0
   15.7529   -1.1277    3.6984 O   0  0  0  0  0  0  0  0  0  0  0  0
   14.9916   -0.1947    2.9203 C   0  0  3  0  0  0  0  0  0  0  0  0
   15.6233    1.2166    3.0373 C   0  0  0  0  0  0  0  0  0  0  0  0
   15.6732    1.7348    4.4092 N   0  0  0  0  0  0  0  0  0  0  0  0
   14.9780   -0.6486    1.4491 C   0  0  3  0  0  0  0  0  0  0  0  0
   14.2842   -2.0096    1.3694 C   0  0  3  0  0  0  0  0  0  0  0  0
   15.0599   -3.0359    2.2043 C   0  0  3  0  0  0  0  0  0  0  0  0
   14.3916   -4.3430    2.1231 N   0  0  0  0  0  0  0  0  0  0  0  0
   14.1909   -2.4105   -0.0048 O   0  0  0  0  0  0  0  0  0  0  0  0
   16.3120   -0.7555    0.9097 O   0  0  0  0  0  0  0  0  0  0  0  0
   13.4181   -2.1221    7.9834 O   0  0  0  0  0  0  0  0  0  0  0  0
   13.0259   -4.8273    8.6252 O   0  0  0  0  0  0  0  0  0  0  0  0
   11.6788   -5.3131    8.4461 C   0  0  3  0  0  0  0  0  0  0  0  0
   10.6464   -4.2058    8.5678 C   0  0  3  0  0  0  0  0  0  0  0  0
    9.3728   -4.7426    8.1747 O   0  0  0  0  0  0  0  0  0  0  0  0
   10.6259   -3.5883    9.9751 C   0  0  3  0  0  0  0  0  0  0  0  0
    9.4871   -2.6548   10.0579 N   0  0  0  0  0  0  0  0  0  0  0  0
   10.5779   -4.6220   11.1194 C   0  0  0  0  0  0  0  0  0  0  0  0
   11.5418   -5.8361   10.9240 C   0  0  3  0  0  0  0  0  0  0  0  0
   11.2788   -6.4331    9.4797 C   0  0  3  0  0  0  0  0  0  0  0  0
   11.8322   -7.7371    9.1461 O   0  0  0  0  0  0  0  0  0  0  0  0
   11.4959   -8.1357    7.7807 C   0  0  3  0  0  0  0  0  0  0  0  0
   10.0942   -8.1236    7.4750 O   0  0  0  0  0  0  0  0  0  0  0  0
    9.3901   -9.3442    7.7501 C   0  0  3  0  0  0  0  0  0  0  0  0
    7.8708   -9.1471    7.4789 C   0  0  0  0  0  0  0  0  0  0  0  0
    7.4790   -8.5946    6.1775 N   0  0  0  0  0  0  0  0  0  0  0  0
   10.0312  -10.5332    7.0097 C   0  0  3  0  0  0  0  0  0  0  0  0
   11.4781  -10.6822    7.5216 C   0  0  3  0  0  0  0  0  0  0  0  0
   12.2648   -9.3845    7.2663 C   0  0  3  0  0  0  0  0  0  0  0  0
   13.6654   -9.4110    7.7512 N   0  0  0  0  0  0  0  0  0  0  0  0
   12.0960  -11.7873    6.8426 O   0  0  0  0  0  0  0  0  0  0  0  0
   10.0868  -10.3891    5.5801 O   0  0  0  0  0  0  0  0  0  0  0  0
   11.3491   -6.7417   12.0744 N   0  0  0  0  0  0  0  0  0  0  0  0
   25.3379   -8.7184   -3.5900 H   0  0  0  0  0  0  0  0  0  0  0  0
   23.7302   -8.1012   -4.0075 H   0  0  0  0  0  0  0  0  0  0  0  0
   24.6788   -8.9956   -5.2120 H   0  0  0  0  0  0  0  0  0  0  0  0
   23.6032  -10.1516   -2.5893 H   0  0  0  0  0  0  0  0  0  0  0  0
   24.5413  -11.0488   -3.7852 H   0  0  0  0  0  0  0  0  0  0  0  0
   22.7474  -10.6360   -5.4953 H   0  0  0  0  0  0  0  0  0  0  0  0
   21.7991   -9.7711   -4.2864 H   0  0  0  0  0  0  0  0  0  0  0  0
   22.6533  -12.7228   -4.0854 H   0  0  0  0  0  0  0  0  0  0  0  0
   21.0673  -12.1479   -4.6111 H   0  0  0  0  0  0  0  0  0  0  0  0
   22.1055  -12.2540   -1.8819 H   0  0  0  0  0  0  0  0  0  0  0  0
   20.8323  -11.5348   -0.3071 H   0  0  0  0  0  0  0  0  0  0  0  0
   17.5632  -11.5797   -2.0429 H   0  0  0  0  0  0  0  0  0  0  0  0
   15.4484  -10.7737   -1.0340 H   0  0  0  0  0  0  0  0  0  0  0  0
   19.6944  -10.8901    1.6611 H   0  0  0  0  0  0  0  0  0  0  0  0
   15.3444   -9.7894    4.8495 H   0  0  0  0  0  0  0  0  0  0  0  0
   14.0625   -9.4589    3.7071 H   0  0  0  0  0  0  0  0  0  0  0  0
   17.1432   -7.4599    5.4200 H   0  0  0  0  0  0  0  0  0  0  0  0
   17.0838   -4.2840    4.8594 H   0  0  0  0  0  0  0  0  0  0  0  0
   17.2265   -5.1722    6.3243 H   0  0  0  0  0  0  0  0  0  0  0  0
   16.4449   -3.0487    6.9434 H   0  0  0  0  0  0  0  0  0  0  0  0
   13.4847   -5.2289    6.6476 H   0  0  0  0  0  0  0  0  0  0  0  0
   12.4220   -2.9680    6.3910 H   0  0  0  0  0  0  0  0  0  0  0  0
   14.8982   -1.7087    6.1216 H   0  0  0  0  0  0  0  0  0  0  0  0
   16.1851   -3.0094    3.9698 H   0  0  0  0  0  0  0  0  0  0  0  0
   13.9708   -0.1629    3.3186 H   0  0  0  0  0  0  0  0  0  0  0  0
   15.0550    1.9227    2.4214 H   0  0  0  0  0  0  0  0  0  0  0  0
   16.6531    1.2011    2.6637 H   0  0  0  0  0  0  0  0  0  0  0  0
   14.7301    1.9242    4.7460 H   0  0  0  0  0  0  0  0  0  0  0  0
   16.1554    2.6344    4.4071 H   0  0  0  0  0  0  0  0  0  0  0  0
   14.4484    0.0684    0.8151 H   0  0  0  0  0  0  0  0  0  0  0  0
   13.2586   -1.9229    1.7468 H   0  0  0  0  0  0  0  0  0  0  0  0
   16.0440   -3.1766    1.7373 H   0  0  0  0  0  0  0  0  0  0  0  0
   13.6000   -4.3409    2.7773 H   0  0  0  0  0  0  0  0  0  0  0  0
   14.9712   -5.0800    2.5385 H   0  0  0  0  0  0  0  0  0  0  0  0
   15.0823   -2.6929   -0.2789 H   0  0  0  0  0  0  0  0  0  0  0  0
   16.9201   -0.9986    1.6320 H   0  0  0  0  0  0  0  0  0  0  0  0
   14.0881   -2.4533    8.6158 H   0  0  0  0  0  0  0  0  0  0  0  0
   11.5801   -5.6715    7.4278 H   0  0  0  0  0  0  0  0  0  0  0  0
   10.8682   -3.4220    7.8434 H   0  0  0  0  0  0  0  0  0  0  0  0
    8.7743   -4.7103    8.9369 H   0  0  0  0  0  0  0  0  0  0  0  0
   11.5454   -3.0047   10.1010 H   0  0  0  0  0  0  0  0  0  0  0  0
    8.5984   -3.1427   10.1413 H   0  0  0  0  0  0  0  0  0  0  0  0
    9.4275   -2.1474    9.1686 H   0  0  0  0  0  0  0  0  0  0  0  0
    9.5513   -5.0031   11.2231 H   0  0  0  0  0  0  0  0  0  0  0  0
   10.8017   -4.1082   12.0660 H   0  0  0  0  0  0  0  0  0  0  0  0
   12.5803   -5.4902   10.9957 H   0  0  0  0  0  0  0  0  0  0  0  0
   10.1972   -6.6105    9.4533 H   0  0  0  0  0  0  0  0  0  0  0  0
   11.9343   -7.3825    7.1336 H   0  0  0  0  0  0  0  0  0  0  0  0
    9.4696   -9.5374    8.8265 H   0  0  0  0  0  0  0  0  0  0  0  0
    7.4866   -8.4538    8.2370 H   0  0  0  0  0  0  0  0  0  0  0  0
    7.3436  -10.0977    7.6218 H   0  0  0  0  0  0  0  0  0  0  0  0
    7.9125   -7.6760    6.0628 H   0  0  0  0  0  0  0  0  0  0  0  0
    6.4724   -8.4021    6.2049 H   0  0  0  0  0  0  0  0  0  0  0  0
    9.4771  -11.4586    7.2037 H   0  0  0  0  0  0  0  0  0  0  0  0
   11.4711  -10.9165    8.5911 H   0  0  0  0  0  0  0  0  0  0  0  0
   12.3351   -9.2816    6.1734 H   0  0  0  0  0  0  0  0  0  0  0  0
   13.6285   -9.3631    8.7741 H   0  0  0  0  0  0  0  0  0  0  0  0
   14.1124   -8.5326    7.4838 H   0  0  0  0  0  0  0  0  0  0  0  0
   11.8994  -11.6574    5.8940 H   0  0  0  0  0  0  0  0  0  0  0  0
    9.7493   -9.5037    5.3439 H   0  0  0  0  0  0  0  0  0  0  0  0
   10.3614   -6.9439   12.2172 H   0  0  0  0  0  0  0  0  0  0  0  0
   11.6424   -6.2553   12.9280 H   0  0  0  0  0  0  0  0  0  0  0  0
  1  2  1  0  0  0  0
  1 65  1  0  0  0  0
  1 66  1  0  0  0  0
  1 67  1  0  0  0  0
  2  3  1  0  0  0  0
  2 68  1  0  0  0  0
  2 69  1  0  0  0  0
  3  4  1  0  0  0  0
  3 70  1  0  0  0  0
  3 71  1  0  0  0  0
  4  5  1  0  0  0  0
  4 72  1  0  0  0  0
  4 73  1  0  0  0  0
  5  6  1  0  0  0  0
  5 74  1  0  0  0  0
  6  7  2  0  0  0  0
  6  8  1  0  0  0  0
  8  9  1  0  0  0  0
  8 75  1  0  0  0  0
  9 10  1  0  0  0  0
  9 14  2  0  0  0  0
 10 11  2  0  0  0  0
 10 76  1  0  0  0  0
 11 12  1  0  0  0  0
 11 77  1  0  0  0  0
 12 13  2  0  0  0  0
 12 17  1  0  0  0  0
 13 14  1  0  0  0  0
 13 15  1  0  0  0  0
 14 78  1  0  0  0  0
 15 16  2  0  0  0  0
 16 17  1  0  0  0  0
 16 18  1  0  0  0  0
 18 19  1  0  0  0  0
 18 79  1  0  0  0  0
 18 80  1  0  0  0  0
 19 20  1  0  0  0  0
 19 23  2  0  0  0  0
 20 21  2  0  0  0  0
 21 22  1  0  0  0  0
 22 23  1  0  0  0  0
 22 24  1  0  0  0  0
 23 81  1  0  0  0  0
 24 25  1  0  0  0  0
 24 82  1  0  0  0  0
 24 83  1  0  0  0  0
 25 26  1  0  0  0  0
 25 29  1  0  0  0  0
 25 84  1  0  0  0  0
 26 27  1  0  0  0  0
 27 28  1  0  0  0  0
 27 43  1  0  0  0  0
 27 85  1  0  0  0  0
 28 29  1  0  0  0  0
 28 42  1  0  0  0  0
 28 86  1  0  0  0  0
 29 30  1  0  0  0  0
 29 87  1  0  0  0  0
 30 31  1  0  0  0  0
 31 32  1  0  0  0  0
 31 38  1  0  0  0  0
 31 88  1  0  0  0  0
 32 33  1  0  0  0  0
 33 34  1  0  0  0  0
 33 36  1  0  0  0  0
 33 89  1  0  0  0  0
 34 35  1  0  0  0  0
 34 90  1  0  0  0  0
 34 91  1  0  0  0  0
 35 92  1  0  0  0  0
 35 93  1  0  0  0  0
 36 37  1  0  0  0  0
 36 41  1  0  0  0  0
 36 94  1  0  0  0  0
 37 38  1  0  0  0  0
 37 40  1  0  0  0  0
 37 95  1  0  0  0  0
 38 39  1  0  0  0  0
 38 96  1  0  0  0  0
 39 97  1  0  0  0  0
 39 98  1  0  0  0  0
 40 99  1  0  0  0  0
 41100  1  0  0  0  0
 42101  1  0  0  0  0
 43 44  1  0  0  0  0
 44 45  1  0  0  0  0
 44 51  1  0  0  0  0
 44102  1  0  0  0  0
 45 46  1  0  0  0  0
 45 47  1  0  0  0  0
 45103  1  0  0  0  0
 46104  1  0  0  0  0
 47 48  1  0  0  0  0
 47 49  1  0  0  0  0
 47105  1  0  0  0  0
 48106  1  0  0  0  0
 48107  1  0  0  0  0
 49 50  1  0  0  0  0
 49108  1  0  0  0  0
 49109  1  0  0  0  0
 50 51  1  0  0  0  0
 50 64  1  0  0  0  0
 50110  1  0  0  0  0
 51 52  1  0  0  0  0
 51111  1  0  0  0  0
 52 53  1  0  0  0  0
 53 54  1  0  0  0  0
 53 60  1  0  0  0  0
 53112  1  0  0  0  0
 54 55  1  0  0  0  0
 55 56  1  0  0  0  0
 55 58  1  0  0  0  0
 55113  1  0  0  0  0
 56 57  1  0  0  0  0
 56114  1  0  0  0  0
 56115  1  0  0  0  0
 57116  1  0  0  0  0
 57117  1  0  0  0  0
 58 59  1  0  0  0  0
 58 63  1  0  0  0  0
 58118  1  0  0  0  0
 59 60  1  0  0  0  0
 59 62  1  0  0  0  0
 59119  1  0  0  0  0
 60 61  1  0  0  0  0
 60120  1  0  0  0  0
 61121  1  0  0  0  0
 61122  1  0  0  0  0
 62123  1  0  0  0  0
 63124  1  0  0  0  0
 64125  1  0  0  0  0
 64126  1  0  0  0  0
M  END
$$$$
Target_lig_758
 OpenBabel04172506213D

127134  0  0  1  0  0  0  0  0999 V2000
    3.1842    4.2628   -5.9955 N   0  0  0  0  0  0  0  0  0  0  0  0
    4.5897    4.0603   -5.6297 C   0  0  0  0  0  0  0  0  0  0  0  0
    4.7862    2.8218   -4.7344 C   0  0  3  0  0  0  0  0  0  0  0  0
    4.0314    2.9454   -3.5274 O   0  0  0  0  0  0  0  0  0  0  0  0
    4.5001    3.8594   -2.5685 C   0  0  3  0  0  0  0  0  0  0  0  0
    3.6991    3.6918   -1.4147 O   0  0  0  0  0  0  0  0  0  0  0  0
    2.3562    4.1122   -1.5630 C   0  0  3  0  0  0  0  0  0  0  0  0
    1.7902    3.8709   -0.1784 C   0  0  3  0  0  0  0  0  0  0  0  0
    1.7069    5.1775    0.5616 C   0  0  0  0  0  0  0  0  0  0  0  0
    2.8947    5.8942    0.9404 N   0  0  0  0  0  0  0  0  0  0  0  0
    3.6360    6.4961   -0.0063 N   0  0  0  0  0  0  0  0  0  0  0  0
    4.2889    7.4933    0.5687 N   0  0  0  0  0  0  0  0  0  0  0  0
    3.9427    7.5400    1.8968 C   0  0  0  0  0  0  0  0  0  0  0  0
    3.0957    6.4867    2.1555 C   0  0  0  0  0  0  0  0  0  0  0  0
    4.4333    8.5798    2.8473 C   0  0  0  0  0  0  0  0  0  0  0  0
    4.9830    9.7484    2.1852 N   0  0  0  0  0  0  0  0  0  0  0  0
    4.6032   11.0515    2.3527 C   0  0  0  0  0  0  0  0  0  0  0  0
    5.3141   11.8549    1.5902 N   0  0  0  0  0  0  0  0  0  0  0  0
    6.1880   11.0388    0.9019 C   0  0  0  0  0  0  0  0  0  0  0  0
    6.0407    9.7373    1.3200 C   0  0  0  0  0  0  0  0  0  0  0  0
    7.1231   11.4836   -0.1177 C   0  0  0  0  0  0  0  0  0  0  0  0
    7.9290   10.5531   -0.7940 C   0  0  0  0  0  0  0  0  0  0  0  0
    8.8350   10.9750   -1.7543 C   0  0  0  0  0  0  0  0  0  0  0  0
    8.9353   12.3285   -2.0625 C   0  0  0  0  0  0  0  0  0  0  0  0
    8.1189   13.2741   -1.4335 C   0  0  0  0  0  0  0  0  0  0  0  0
    7.2191   12.8402   -0.4530 C   0  0  0  0  0  0  0  0  0  0  0  0
    8.1557   14.6545   -1.7477 N   0  0  0  0  0  0  0  0  0  0  0  0
    8.9276   15.2299   -2.7430 C   0  0  0  0  0  0  0  0  0  0  0  0
    9.7083   14.6572   -3.4887 O   0  0  0  0  0  0  0  0  0  0  0  0
    8.7665   16.6989   -2.9421 C   0  0  0  0  0  0  0  0  0  0  0  0
    8.3488   17.5658   -1.9283 C   0  0  0  0  0  0  0  0  0  0  0  0
    8.2884   18.9398   -2.1774 C   0  0  0  0  0  0  0  0  0  0  0  0
    8.6398   19.4453   -3.4317 C   0  0  0  0  0  0  0  0  0  0  0  0
    9.0503   18.5827   -4.4445 C   0  0  0  0  0  0  0  0  0  0  0  0
    9.1149   17.2151   -4.1994 C   0  0  0  0  0  0  0  0  0  0  0  0
    0.4708    3.3233   -0.3260 O   0  0  0  0  0  0  0  0  0  0  0  0
    0.0984    3.3366   -1.7157 C   0  0  3  0  0  0  0  0  0  0  0  0
    1.4196    3.3308   -2.4782 C   0  0  3  0  0  0  0  0  0  0  0  0
    1.8083    1.9489   -2.5822 O   0  0  0  0  0  0  0  0  0  0  0  0
   -0.8677    4.3758   -1.9735 O   0  0  0  0  0  0  0  0  0  0  0  0
   -2.0788    4.0611   -1.2195 C   0  0  3  0  0  0  0  0  0  0  0  0
   -2.8348    2.8500   -1.8181 C   0  0  3  0  0  0  0  0  0  0  0  0
   -3.3493    2.0475   -0.7359 O   0  0  0  0  0  0  0  0  0  0  0  0
   -3.9605    3.1717   -2.8099 C   0  0  3  0  0  0  0  0  0  0  0  0
   -4.7317    1.9317   -3.0401 N   0  0  0  0  0  0  0  0  0  0  0  0
   -4.8805    4.2746   -2.2979 C   0  0  0  0  0  0  0  0  0  0  0  0
   -4.0805    5.5419   -1.9476 C   0  0  3  0  0  0  0  0  0  0  0  0
   -3.0224    5.2577   -0.8533 C   0  0  3  0  0  0  0  0  0  0  0  0
   -2.3938    6.4958   -0.3857 O   0  0  0  0  0  0  0  0  0  0  0  0
   -1.3290    6.2889    0.5277 C   0  0  3  0  0  0  0  0  0  0  0  0
   -1.7089    5.5679    1.6960 O   0  0  0  0  0  0  0  0  0  0  0  0
   -2.0309    6.3202    2.8759 C   0  0  3  0  0  0  0  0  0  0  0  0
   -2.0888    5.3154    4.0563 C   0  0  0  0  0  0  0  0  0  0  0  0
   -0.8541    4.5201    4.2164 N   0  0  0  0  0  0  0  0  0  0  0  0
   -0.9899    7.4304    3.1424 C   0  0  3  0  0  0  0  0  0  0  0  0
   -0.8462    8.3757    1.9407 C   0  0  3  0  0  0  0  0  0  0  0  0
   -0.4254    7.5467    0.7277 C   0  0  3  0  0  0  0  0  0  0  0  0
   -0.0732    8.3047   -0.4960 N   0  0  0  0  0  0  0  0  0  0  0  0
    0.1998    9.3215    2.2613 O   0  0  0  0  0  0  0  0  0  0  0  0
    0.3082    6.8562    3.3929 O   0  0  0  0  0  0  0  0  0  0  0  0
   -4.9992    6.5701   -1.4454 N   0  0  0  0  0  0  0  0  0  0  0  0
    5.9443    3.5397   -2.1215 C   0  0  3  0  0  0  0  0  0  0  0  0
    6.8233    3.4676   -3.3720 C   0  0  3  0  0  0  0  0  0  0  0  0
    6.2437    2.4872   -4.4088 C   0  0  3  0  0  0  0  0  0  0  0  0
    7.0060    2.4664   -5.6130 O   0  0  0  0  0  0  0  0  0  0  0  0
    8.1458    3.0647   -3.0010 O   0  0  0  0  0  0  0  0  0  0  0  0
    6.0500    2.2684   -1.3291 N   0  0  0  0  0  0  0  0  0  0  0  0
    3.0507    5.1928   -6.3808 H   0  0  0  0  0  0  0  0  0  0  0  0
    2.5999    4.1808   -5.1641 H   0  0  0  0  0  0  0  0  0  0  0  0
    4.9326    4.9639   -5.1172 H   0  0  0  0  0  0  0  0  0  0  0  0
    5.1700    3.9524   -6.5504 H   0  0  0  0  0  0  0  0  0  0  0  0
    4.3522    1.9645   -5.2602 H   0  0  0  0  0  0  0  0  0  0  0  0
    4.4301    4.8986   -2.9186 H   0  0  0  0  0  0  0  0  0  0  0  0
    2.3224    5.1699   -1.8563 H   0  0  0  0  0  0  0  0  0  0  0  0
    2.3681    3.1511    0.4097 H   0  0  0  0  0  0  0  0  0  0  0  0
    1.0730    5.0590    1.4457 H   0  0  0  0  0  0  0  0  0  0  0  0
    1.2178    5.8503   -0.1412 H   0  0  0  0  0  0  0  0  0  0  0  0
    2.5573    6.1926    3.0423 H   0  0  0  0  0  0  0  0  0  0  0  0
    5.2303    8.1647    3.4760 H   0  0  0  0  0  0  0  0  0  0  0  0
    3.6179    8.9162    3.4983 H   0  0  0  0  0  0  0  0  0  0  0  0
    3.8156   11.3584    3.0299 H   0  0  0  0  0  0  0  0  0  0  0  0
    6.5246    8.8138    1.0327 H   0  0  0  0  0  0  0  0  0  0  0  0
    7.8636    9.4887   -0.5910 H   0  0  0  0  0  0  0  0  0  0  0  0
    9.4585   10.2523   -2.2731 H   0  0  0  0  0  0  0  0  0  0  0  0
    9.6669   12.6026   -2.8131 H   0  0  0  0  0  0  0  0  0  0  0  0
    6.5735   13.5499    0.0611 H   0  0  0  0  0  0  0  0  0  0  0  0
    7.5116   15.2496   -1.2417 H   0  0  0  0  0  0  0  0  0  0  0  0
    8.0999   17.1926   -0.9387 H   0  0  0  0  0  0  0  0  0  0  0  0
    7.9819   19.6201   -1.3877 H   0  0  0  0  0  0  0  0  0  0  0  0
    8.6044   20.5152   -3.6203 H   0  0  0  0  0  0  0  0  0  0  0  0
    9.3353   18.9633   -5.4209 H   0  0  0  0  0  0  0  0  0  0  0  0
    9.4534   16.5494   -4.9913 H   0  0  0  0  0  0  0  0  0  0  0  0
   -0.3612    2.3736   -1.9259 H   0  0  0  0  0  0  0  0  0  0  0  0
    1.3499    3.7574   -3.4822 H   0  0  0  0  0  0  0  0  0  0  0  0
    1.8486    1.5856   -1.6799 H   0  0  0  0  0  0  0  0  0  0  0  0
   -1.7373    3.7315   -0.2330 H   0  0  0  0  0  0  0  0  0  0  0  0
   -2.1644    2.1858   -2.3670 H   0  0  0  0  0  0  0  0  0  0  0  0
   -4.0373    2.5553   -0.2744 H   0  0  0  0  0  0  0  0  0  0  0  0
   -3.5315    3.4918   -3.7674 H   0  0  0  0  0  0  0  0  0  0  0  0
   -4.7985    1.4425   -2.1370 H   0  0  0  0  0  0  0  0  0  0  0  0
   -4.1405    1.2917   -3.5758 H   0  0  0  0  0  0  0  0  0  0  0  0
   -5.4332    3.9255   -1.4147 H   0  0  0  0  0  0  0  0  0  0  0  0
   -5.6357    4.5001   -3.0633 H   0  0  0  0  0  0  0  0  0  0  0  0
   -3.5879    5.9365   -2.8447 H   0  0  0  0  0  0  0  0  0  0  0  0
   -3.6017    4.9061    0.0141 H   0  0  0  0  0  0  0  0  0  0  0  0
   -0.6846    5.6035    0.0062 H   0  0  0  0  0  0  0  0  0  0  0  0
   -3.0101    6.7673    2.7352 H   0  0  0  0  0  0  0  0  0  0  0  0
   -2.9090    4.6099    3.8987 H   0  0  0  0  0  0  0  0  0  0  0  0
   -2.2673    5.8518    4.9937 H   0  0  0  0  0  0  0  0  0  0  0  0
   -0.7598    3.9084    3.3983 H   0  0  0  0  0  0  0  0  0  0  0  0
   -0.9839    3.8754    5.0013 H   0  0  0  0  0  0  0  0  0  0  0  0
   -1.2498    8.0024    4.0403 H   0  0  0  0  0  0  0  0  0  0  0  0
   -1.7681    8.9311    1.7454 H   0  0  0  0  0  0  0  0  0  0  0  0
    0.5460    7.1942    1.0616 H   0  0  0  0  0  0  0  0  0  0  0  0
   -0.9243    8.4124   -1.0494 H   0  0  0  0  0  0  0  0  0  0  0  0
    0.5598    7.7613   -1.0847 H   0  0  0  0  0  0  0  0  0  0  0  0
    0.9951    8.7823    2.4328 H   0  0  0  0  0  0  0  0  0  0  0  0
    0.1589    5.9772    3.8176 H   0  0  0  0  0  0  0  0  0  0  0  0
   -5.5041    6.2363   -0.6300 H   0  0  0  0  0  0  0  0  0  0  0  0
   -5.7085    6.7681   -2.1572 H   0  0  0  0  0  0  0  0  0  0  0  0
    6.3098    4.3225   -1.4443 H   0  0  0  0  0  0  0  0  0  0  0  0
    6.9167    4.4658   -3.8129 H   0  0  0  0  0  0  0  0  0  0  0  0
    6.2880    1.4743   -3.9866 H   0  0  0  0  0  0  0  0  0  0  0  0
    7.7176    3.1255   -5.5257 H   0  0  0  0  0  0  0  0  0  0  0  0
    8.0159    2.4478   -2.2472 H   0  0  0  0  0  0  0  0  0  0  0  0
    5.5022    1.5543   -1.8218 H   0  0  0  0  0  0  0  0  0  0  0  0
    5.4836    2.4233   -0.4863 H   0  0  0  0  0  0  0  0  0  0  0  0
  1  2  1  0  0  0  0
  1 68  1  0  0  0  0
  1 69  1  0  0  0  0
  2  3  1  0  0  0  0
  2 70  1  0  0  0  0
  2 71  1  0  0  0  0
  3  4  1  0  0  0  0
  3 64  1  0  0  0  0
  3 72  1  0  0  0  0
  4  5  1  0  0  0  0
  5  6  1  0  0  0  0
  5 62  1  0  0  0  0
  5 73  1  0  0  0  0
  6  7  1  0  0  0  0
  7  8  1  0  0  0  0
  7 38  1  0  0  0  0
  7 74  1  0  0  0  0
  8  9  1  0  0  0  0
  8 36  1  0  0  0  0
  8 75  1  0  0  0  0
  9 10  1  0  0  0  0
  9 76  1  0  0  0  0
  9 77  1  0  0  0  0
 10 11  1  0  0  0  0
 10 14  1  0  0  0  0
 11 12  2  0  0  0  0
 12 13  1  0  0  0  0
 13 14  2  0  0  0  0
 13 15  1  0  0  0  0
 14 78  1  0  0  0  0
 15 16  1  0  0  0  0
 15 79  1  0  0  0  0
 15 80  1  0  0  0  0
 16 17  1  0  0  0  0
 16 20  1  0  0  0  0
 17 18  2  0  0  0  0
 17 81  1  0  0  0  0
 18 19  1  0  0  0  0
 19 20  2  0  0  0  0
 19 21  1  0  0  0  0
 20 82  1  0  0  0  0
 21 22  1  0  0  0  0
 21 26  2  0  0  0  0
 22 23  2  0  0  0  0
 22 83  1  0  0  0  0
 23 24  1  0  0  0  0
 23 84  1  0  0  0  0
 24 25  2  0  0  0  0
 24 85  1  0  0  0  0
 25 26  1  0  0  0  0
 25 27  1  0  0  0  0
 26 86  1  0  0  0  0
 27 28  1  0  0  0  0
 27 87  1  0  0  0  0
 28 29  2  0  0  0  0
 28 30  1  0  0  0  0
 30 31  1  0  0  0  0
 30 35  2  0  0  0  0
 31 32  2  0  0  0  0
 31 88  1  0  0  0  0
 32 33  1  0  0  0  0
 32 89  1  0  0  0  0
 33 34  2  0  0  0  0
 33 90  1  0  0  0  0
 34 35  1  0  0  0  0
 34 91  1  0  0  0  0
 35 92  1  0  0  0  0
 36 37  1  0  0  0  0
 37 38  1  0  0  0  0
 37 40  1  0  0  0  0
 37 93  1  0  0  0  0
 38 39  1  0  0  0  0
 38 94  1  0  0  0  0
 39 95  1  0  0  0  0
 40 41  1  0  0  0  0
 41 42  1  0  0  0  0
 41 48  1  0  0  0  0
 41 96  1  0  0  0  0
 42 43  1  0  0  0  0
 42 44  1  0  0  0  0
 42 97  1  0  0  0  0
 43 98  1  0  0  0  0
 44 45  1  0  0  0  0
 44 46  1  0  0  0  0
 44 99  1  0  0  0  0
 45100  1  0  0  0  0
 45101  1  0  0  0  0
 46 47  1  0  0  0  0
 46102  1  0  0  0  0
 46103  1  0  0  0  0
 47 48  1  0  0  0  0
 47 61  1  0  0  0  0
 47104  1  0  0  0  0
 48 49  1  0  0  0  0
 48105  1  0  0  0  0
 49 50  1  0  0  0  0
 50 51  1  0  0  0  0
 50 57  1  0  0  0  0
 50106  1  0  0  0  0
 51 52  1  0  0  0  0
 52 53  1  0  0  0  0
 52 55  1  0  0  0  0
 52107  1  0  0  0  0
 53 54  1  0  0  0  0
 53108  1  0  0  0  0
 53109  1  0  0  0  0
 54110  1  0  0  0  0
 54111  1  0  0  0  0
 55 56  1  0  0  0  0
 55 60  1  0  0  0  0
 55112  1  0  0  0  0
 56 57  1  0  0  0  0
 56 59  1  0  0  0  0
 56113  1  0  0  0  0
 57 58  1  0  0  0  0
 57114  1  0  0  0  0
 58115  1  0  0  0  0
 58116  1  0  0  0  0
 59117  1  0  0  0  0
 60118  1  0  0  0  0
 61119  1  0  0  0  0
 61120  1  0  0  0  0
 62 63  1  0  0  0  0
 62 67  1  0  0  0  0
 62121  1  0  0  0  0
 63 64  1  0  0  0  0
 63 66  1  0  0  0  0
 63122  1  0  0  0  0
 64 65  1  0  0  0  0
 64123  1  0  0  0  0
 65124  1  0  0  0  0
 66125  1  0  0  0  0
 67126  1  0  0  0  0
 67127  1  0  0  0  0
M  END
$$$$
Target_lig_759
 OpenBabel04172506213D

131137  0  0  1  0  0  0  0  0999 V2000
   19.2198   16.6660   10.3175 C   0  0  0  0  0  0  0  0  0  0  0  0
   19.6627   16.2657    8.9215 C   0  0  0  0  0  0  0  0  0  0  0  0
   18.5828   15.4479    8.2065 C   0  0  0  0  0  0  0  0  0  0  0  0
   19.0515   15.0563    6.8146 C   0  0  0  0  0  0  0  0  0  0  0  0
   18.0815   14.2815    6.0665 N   0  0  0  0  0  0  0  0  0  0  0  0
   18.4455   13.8999    4.8029 C   0  0  0  0  0  0  0  0  0  0  0  0
   19.5514   14.2287    4.3469 O   0  0  0  0  0  0  0  0  0  0  0  0
   17.4672   13.2222    4.1355 N   0  0  0  0  0  0  0  0  0  0  0  0
   17.6035   12.7552    2.8116 C   0  0  0  0  0  0  0  0  0  0  0  0
   18.8531   12.6059    2.2132 C   0  0  0  0  0  0  0  0  0  0  0  0
   18.9843   12.1762    0.8945 C   0  0  0  0  0  0  0  0  0  0  0  0
   17.8376   11.8659    0.1804 C   0  0  0  0  0  0  0  0  0  0  0  0
   16.6022   11.9892    0.7767 C   0  0  0  0  0  0  0  0  0  0  0  0
   16.4483   12.4455    2.0903 C   0  0  0  0  0  0  0  0  0  0  0  0
   15.4244   11.6558   -0.0203 C   0  0  0  0  0  0  0  0  0  0  0  0
   15.4842   10.6830   -0.9903 N   0  0  0  0  0  0  0  0  0  0  0  0
   14.3168   10.7639   -1.5820 C   0  0  0  0  0  0  0  0  0  0  0  0
   13.5363   11.7454   -1.0243 N   0  0  0  0  0  0  0  0  0  0  0  0
   14.2614   12.2809   -0.0061 C   0  0  0  0  0  0  0  0  0  0  0  0
   12.1911   12.1336   -1.3850 C   0  0  0  0  0  0  0  0  0  0  0  0
   11.9248   11.9492   -2.7905 C   0  0  0  0  0  0  0  0  0  0  0  0
   11.4075   10.8248   -3.3561 N   0  0  0  0  0  0  0  0  0  0  0  0
   11.2998   11.0008   -4.6744 N   0  0  0  0  0  0  0  0  0  0  0  0
   11.7252   12.2326   -4.9349 N   0  0  0  0  0  0  0  0  0  0  0  0
   12.1496   12.8954   -3.8130 C   0  0  0  0  0  0  0  0  0  0  0  0
   11.9311   12.7180   -6.2832 C   0  0  0  0  0  0  0  0  0  0  0  0
   11.0619   12.1924   -7.5164 C   0  0  3  0  0  0  0  0  0  0  0  0
    9.6595   12.3681   -7.4080 O   0  0  0  0  0  0  0  0  0  0  0  0
    9.0611   11.0828   -7.2168 C   0  0  3  0  0  0  0  0  0  0  0  0
    9.7627   10.1875   -8.2224 C   0  0  3  0  0  0  0  0  0  0  0  0
   11.2041   10.7405   -8.0763 C   0  0  3  0  0  0  0  0  0  0  0  0
   12.0725    9.9943   -7.2434 O   0  0  0  0  0  0  0  0  0  0  0  0
   12.4237    8.6947   -7.7529 C   0  0  3  0  0  0  0  0  0  0  0  0
   11.3394    7.7351   -7.7989 O   0  0  0  0  0  0  0  0  0  0  0  0
   10.8265    7.3114   -6.5181 C   0  0  3  0  0  0  0  0  0  0  0  0
    9.3522    6.6011   -6.5097 C   0  0  0  0  0  0  0  0  0  0  0  0
    8.0566    7.2170   -6.8800 N   0  0  0  0  0  0  0  0  0  0  0  0
   11.9583    6.6084   -5.7349 C   0  0  3  0  0  0  0  0  0  0  0  0
   13.2215    7.5527   -5.6209 C   0  0  3  0  0  0  0  0  0  0  0  0
   13.6613    8.1649   -6.9889 C   0  0  3  0  0  0  0  0  0  0  0  0
   14.7322    9.2150   -6.9034 N   0  0  0  0  0  0  0  0  0  0  0  0
   14.3041    6.8075   -5.0368 O   0  0  0  0  0  0  0  0  0  0  0  0
   12.3359    5.3639   -6.3331 O   0  0  0  0  0  0  0  0  0  0  0  0
    9.3139   10.3758   -9.5699 O   0  0  0  0  0  0  0  0  0  0  0  0
    7.6451   11.1828   -7.2233 O   0  0  0  0  0  0  0  0  0  0  0  0
    7.3032   12.2349   -6.2627 C   0  0  3  0  0  0  0  0  0  0  0  0
    7.4684   12.0780   -4.7280 C   0  0  3  0  0  0  0  0  0  0  0  0
    7.4401   13.3653   -4.0488 O   0  0  0  0  0  0  0  0  0  0  0  0
    6.3684   11.2168   -4.1727 C   0  0  3  0  0  0  0  0  0  0  0  0
    6.5829   11.0946   -2.7198 N   0  0  0  0  0  0  0  0  0  0  0  0
    4.9402   11.5909   -4.6315 C   0  0  0  0  0  0  0  0  0  0  0  0
    4.8368   11.8483   -6.1965 C   0  0  3  0  0  0  0  0  0  0  0  0
    5.9497   12.9107   -6.5551 C   0  0  3  0  0  0  0  0  0  0  0  0
    6.0343   13.6198   -7.8211 O   0  0  0  0  0  0  0  0  0  0  0  0
    7.2140   14.5014   -7.9096 C   0  0  3  0  0  0  0  0  0  0  0  0
    7.3133   15.6004   -6.9683 O   0  0  0  0  0  0  0  0  0  0  0  0
    6.7909   16.8847   -7.3453 C   0  0  3  0  0  0  0  0  0  0  0  0
    6.8592   17.8878   -6.1537 C   0  0  0  0  0  0  0  0  0  0  0  0
    8.1876   18.1567   -5.5955 N   0  0  0  0  0  0  0  0  0  0  0  0
    7.2201   17.3337   -8.7600 C   0  0  3  0  0  0  0  0  0  0  0  0
    6.8600   16.1770   -9.7509 C   0  0  3  0  0  0  0  0  0  0  0  0
    7.5568   14.8782   -9.3899 C   0  0  3  0  0  0  0  0  0  0  0  0
    7.3294   13.7070  -10.2993 N   0  0  0  0  0  0  0  0  0  0  0  0
    7.1463   16.5449  -11.0975 O   0  0  0  0  0  0  0  0  0  0  0  0
    8.6028   17.6535   -8.8771 O   0  0  0  0  0  0  0  0  0  0  0  0
    3.4545   12.2406   -6.4713 N   0  0  0  0  0  0  0  0  0  0  0  0
   19.9992   17.2555   10.8103 H   0  0  0  0  0  0  0  0  0  0  0  0
   19.0216   15.7817   10.9312 H   0  0  0  0  0  0  0  0  0  0  0  0
   18.3084   17.2705   10.2777 H   0  0  0  0  0  0  0  0  0  0  0  0
   20.5900   15.6837    8.9903 H   0  0  0  0  0  0  0  0  0  0  0  0
   19.8937   17.1685    8.3430 H   0  0  0  0  0  0  0  0  0  0  0  0
   17.6545   16.0274    8.1435 H   0  0  0  0  0  0  0  0  0  0  0  0
   18.3591   14.5444    8.7860 H   0  0  0  0  0  0  0  0  0  0  0  0
   19.9782   14.4734    6.8822 H   0  0  0  0  0  0  0  0  0  0  0  0
   19.2715   15.9568    6.2255 H   0  0  0  0  0  0  0  0  0  0  0  0
   17.5068   13.6056    6.5499 H   0  0  0  0  0  0  0  0  0  0  0  0
   16.5452   13.3203    4.5400 H   0  0  0  0  0  0  0  0  0  0  0  0
   19.7683   12.8154    2.7632 H   0  0  0  0  0  0  0  0  0  0  0  0
   19.9601   12.0751    0.4447 H   0  0  0  0  0  0  0  0  0  0  0  0
   17.9286   11.5158   -0.8509 H   0  0  0  0  0  0  0  0  0  0  0  0
   15.4790   12.5566    2.5379 H   0  0  0  0  0  0  0  0  0  0  0  0
   14.0156   10.1332   -2.4141 H   0  0  0  0  0  0  0  0  0  0  0  0
   13.8623   13.1250    0.6015 H   0  0  0  0  0  0  0  0  0  0  0  0
   12.0583   13.1834   -1.0763 H   0  0  0  0  0  0  0  0  0  0  0  0
   11.5024   11.5061   -0.8024 H   0  0  0  0  0  0  0  0  0  0  0  0
   12.5450   13.8721   -3.7425 H   0  0  0  0  0  0  0  0  0  0  0  0
   12.9972   12.5426   -6.4669 H   0  0  0  0  0  0  0  0  0  0  0  0
   11.8687   13.8054   -6.1967 H   0  0  0  0  0  0  0  0  0  0  0  0
   11.2381   12.9366   -8.3050 H   0  0  0  0  0  0  0  0  0  0  0  0
    9.3378   10.7158   -6.2346 H   0  0  0  0  0  0  0  0  0  0  0  0
    9.6078    9.1363   -7.9824 H   0  0  0  0  0  0  0  0  0  0  0  0
   11.5779   10.7879   -9.1029 H   0  0  0  0  0  0  0  0  0  0  0  0
   12.7491    8.8653   -8.7874 H   0  0  0  0  0  0  0  0  0  0  0  0
   10.6778    8.1804   -5.8902 H   0  0  0  0  0  0  0  0  0  0  0  0
    9.1813    6.4002   -5.4468 H   0  0  0  0  0  0  0  0  0  0  0  0
    9.3632    5.6379   -7.0276 H   0  0  0  0  0  0  0  0  0  0  0  0
    7.8710    8.2001   -6.7246 H   0  0  0  0  0  0  0  0  0  0  0  0
    7.6222    6.8811   -7.7388 H   0  0  0  0  0  0  0  0  0  0  0  0
   11.5936    6.3985   -4.7203 H   0  0  0  0  0  0  0  0  0  0  0  0
   13.0107    8.3664   -4.9152 H   0  0  0  0  0  0  0  0  0  0  0  0
   14.0900    7.3451   -7.5748 H   0  0  0  0  0  0  0  0  0  0  0  0
   14.3059   10.0836   -6.5688 H   0  0  0  0  0  0  0  0  0  0  0  0
   15.0465    9.4362   -7.8510 H   0  0  0  0  0  0  0  0  0  0  0  0
   14.2112    5.8990   -5.3674 H   0  0  0  0  0  0  0  0  0  0  0  0
   12.1818    5.4622   -7.2901 H   0  0  0  0  0  0  0  0  0  0  0  0
    8.9497   11.2724   -9.6389 H   0  0  0  0  0  0  0  0  0  0  0  0
    8.0438   12.9349   -6.4138 H   0  0  0  0  0  0  0  0  0  0  0  0
    8.4759   11.6903   -4.5349 H   0  0  0  0  0  0  0  0  0  0  0  0
    6.6203   13.3965   -3.5171 H   0  0  0  0  0  0  0  0  0  0  0  0
    6.4838   10.2275   -4.6058 H   0  0  0  0  0  0  0  0  0  0  0  0
    6.2711   11.8914   -2.1726 H   0  0  0  0  0  0  0  0  0  0  0  0
    7.5984   11.0651   -2.5533 H   0  0  0  0  0  0  0  0  0  0  0  0
    4.5758   12.4724   -4.0820 H   0  0  0  0  0  0  0  0  0  0  0  0
    4.2792   10.7611   -4.3543 H   0  0  0  0  0  0  0  0  0  0  0  0
    4.9973   10.9197   -6.7641 H   0  0  0  0  0  0  0  0  0  0  0  0
    5.7426   13.6973   -5.8368 H   0  0  0  0  0  0  0  0  0  0  0  0
    8.0703   13.9324   -7.6951 H   0  0  0  0  0  0  0  0  0  0  0  0
    5.7169   16.7777   -7.4712 H   0  0  0  0  0  0  0  0  0  0  0  0
    6.2390   17.4618   -5.3497 H   0  0  0  0  0  0  0  0  0  0  0  0
    6.3882   18.8377   -6.4292 H   0  0  0  0  0  0  0  0  0  0  0  0
    8.6551   17.2744   -5.3956 H   0  0  0  0  0  0  0  0  0  0  0  0
    8.0919   18.6394   -4.6975 H   0  0  0  0  0  0  0  0  0  0  0  0
    6.6447   18.2242   -9.0489 H   0  0  0  0  0  0  0  0  0  0  0  0
    5.7787   16.0286   -9.7318 H   0  0  0  0  0  0  0  0  0  0  0  0
    8.6469   15.0481   -9.4034 H   0  0  0  0  0  0  0  0  0  0  0  0
    6.3817   13.3583  -10.1150 H   0  0  0  0  0  0  0  0  0  0  0  0
    7.9126   12.9326   -9.9850 H   0  0  0  0  0  0  0  0  0  0  0  0
    8.0889   16.7912  -11.1280 H   0  0  0  0  0  0  0  0  0  0  0  0
    9.0793   17.1652   -8.1855 H   0  0  0  0  0  0  0  0  0  0  0  0
    3.1430   12.9320   -5.7900 H   0  0  0  0  0  0  0  0  0  0  0  0
    2.8490   11.4263   -6.3357 H   0  0  0  0  0  0  0  0  0  0  0  0
  1  2  1  0  0  0  0
  1 67  1  0  0  0  0
  1 68  1  0  0  0  0
  1 69  1  0  0  0  0
  2  3  1  0  0  0  0
  2 70  1  0  0  0  0
  2 71  1  0  0  0  0
  3  4  1  0  0  0  0
  3 72  1  0  0  0  0
  3 73  1  0  0  0  0
  4  5  1  0  0  0  0
  4 74  1  0  0  0  0
  4 75  1  0  0  0  0
  5  6  1  0  0  0  0
  5 76  1  0  0  0  0
  6  7  2  0  0  0  0
  6  8  1  0  0  0  0
  8  9  1  0  0  0  0
  8 77  1  0  0  0  0
  9 10  1  0  0  0  0
  9 14  2  0  0  0  0
 10 11  2  0  0  0  0
 10 78  1  0  0  0  0
 11 12  1  0  0  0  0
 11 79  1  0  0  0  0
 12 13  2  0  0  0  0
 12 80  1  0  0  0  0
 13 14  1  0  0  0  0
 13 15  1  0  0  0  0
 14 81  1  0  0  0  0
 15 16  1  0  0  0  0
 15 19  2  0  0  0  0
 16 17  2  0  0  0  0
 17 18  1  0  0  0  0
 17 82  1  0  0  0  0
 18 19  1  0  0  0  0
 18 20  1  0  0  0  0
 19 83  1  0  0  0  0
 20 21  1  0  0  0  0
 20 84  1  0  0  0  0
 20 85  1  0  0  0  0
 21 22  1  0  0  0  0
 21 25  2  0  0  0  0
 22 23  2  0  0  0  0
 23 24  1  0  0  0  0
 24 25  1  0  0  0  0
 24 26  1  0  0  0  0
 25 86  1  0  0  0  0
 26 27  1  0  0  0  0
 26 87  1  0  0  0  0
 26 88  1  0  0  0  0
 27 28  1  0  0  0  0
 27 31  1  0  0  0  0
 27 89  1  0  0  0  0
 28 29  1  0  0  0  0
 29 30  1  0  0  0  0
 29 45  1  0  0  0  0
 29 90  1  0  0  0  0
 30 31  1  0  0  0  0
 30 44  1  0  0  0  0
 30 91  1  0  0  0  0
 31 32  1  0  0  0  0
 31 92  1  0  0  0  0
 32 33  1  0  0  0  0
 33 34  1  0  0  0  0
 33 40  1  0  0  0  0
 33 93  1  0  0  0  0
 34 35  1  0  0  0  0
 35 36  1  0  0  0  0
 35 38  1  0  0  0  0
 35 94  1  0  0  0  0
 36 37  1  0  0  0  0
 36 95  1  0  0  0  0
 36 96  1  0  0  0  0
 37 97  1  0  0  0  0
 37 98  1  0  0  0  0
 38 39  1  0  0  0  0
 38 43  1  0  0  0  0
 38 99  1  0  0  0  0
 39 40  1  0  0  0  0
 39 42  1  0  0  0  0
 39100  1  0  0  0  0
 40 41  1  0  0  0  0
 40101  1  0  0  0  0
 41102  1  0  0  0  0
 41103  1  0  0  0  0
 42104  1  0  0  0  0
 43105  1  0  0  0  0
 44106  1  0  0  0  0
 45 46  1  0  0  0  0
 46 47  1  0  0  0  0
 46 53  1  0  0  0  0
 46107  1  0  0  0  0
 47 48  1  0  0  0  0
 47 49  1  0  0  0  0
 47108  1  0  0  0  0
 48109  1  0  0  0  0
 49 50  1  0  0  0  0
 49 51  1  0  0  0  0
 49110  1  0  0  0  0
 50111  1  0  0  0  0
 50112  1  0  0  0  0
 51 52  1  0  0  0  0
 51113  1  0  0  0  0
 51114  1  0  0  0  0
 52 53  1  0  0  0  0
 52 66  1  0  0  0  0
 52115  1  0  0  0  0
 53 54  1  0  0  0  0
 53116  1  0  0  0  0
 54 55  1  0  0  0  0
 55 56  1  0  0  0  0
 55 62  1  0  0  0  0
 55117  1  0  0  0  0
 56 57  1  0  0  0  0
 57 58  1  0  0  0  0
 57 60  1  0  0  0  0
 57118  1  0  0  0  0
 58 59  1  0  0  0  0
 58119  1  0  0  0  0
 58120  1  0  0  0  0
 59121  1  0  0  0  0
 59122  1  0  0  0  0
 60 61  1  0  0  0  0
 60 65  1  0  0  0  0
 60123  1  0  0  0  0
 61 62  1  0  0  0  0
 61 64  1  0  0  0  0
 61124  1  0  0  0  0
 62 63  1  0  0  0  0
 62125  1  0  0  0  0
 63126  1  0  0  0  0
 63127  1  0  0  0  0
 64128  1  0  0  0  0
 65129  1  0  0  0  0
 66130  1  0  0  0  0
 66131  1  0  0  0  0
M  END
$$$$
Target_lig_760
 OpenBabel04172506213D

123129  0  0  1  0  0  0  0  0999 V2000
   -3.2711   -5.0716    1.3426 N   0  0  0  0  0  0  0  0  0  0  0  0
   -2.0682   -5.8831    1.5151 C   0  0  0  0  0  0  0  0  0  0  0  0
   -0.8055   -5.0208    1.7680 C   0  0  3  0  0  0  0  0  0  0  0  0
   -0.5114   -4.1542    0.6721 O   0  0  0  0  0  0  0  0  0  0  0  0
    0.0694   -4.7144   -0.4935 C   0  0  3  0  0  0  0  0  0  0  0  0
    0.4526   -3.6940   -1.4273 O   0  0  0  0  0  0  0  0  0  0  0  0
   -0.6449   -2.9255   -1.9159 C   0  0  3  0  0  0  0  0  0  0  0  0
   -0.1288   -1.9425   -2.9719 C   0  0  3  0  0  0  0  0  0  0  0  0
   -0.5121   -2.1866   -4.4564 C   0  0  0  0  0  0  0  0  0  0  0  0
   -1.8876   -2.4405   -4.8278 N   0  0  0  0  0  0  0  0  0  0  0  0
   -2.6897   -1.4349   -5.2084 N   0  0  0  0  0  0  0  0  0  0  0  0
   -3.8855   -1.9360   -5.4848 N   0  0  0  0  0  0  0  0  0  0  0  0
   -3.7708   -3.2970   -5.4995 C   0  0  0  0  0  0  0  0  0  0  0  0
   -2.4824   -3.6335   -5.1150 C   0  0  0  0  0  0  0  0  0  0  0  0
   -4.8657   -4.1425   -6.0305 C   0  0  0  0  0  0  0  0  0  0  0  0
   -5.0571   -3.9390   -7.5351 C   0  0  0  0  0  0  0  0  0  0  0  0
   -3.7785   -4.2460   -8.2942 C   0  0  0  0  0  0  0  0  0  0  0  0
   -2.6558   -4.2262   -7.8002 O   0  0  0  0  0  0  0  0  0  0  0  0
   -3.9290   -4.5306   -9.6212 N   0  0  0  0  0  0  0  0  0  0  0  0
   -2.7198   -4.7384  -10.3794 C   0  0  0  0  0  0  0  0  0  0  0  0
   -3.0475   -5.1798  -11.7683 C   0  0  0  0  0  0  0  0  0  0  0  0
   -4.2111   -5.3246  -12.1659 O   0  0  0  0  0  0  0  0  0  0  0  0
   -2.0374   -5.4625  -12.6467 N   0  0  0  0  0  0  0  0  0  0  0  0
   -0.7018   -5.3657  -12.3785 C   0  0  0  0  0  0  0  0  0  0  0  0
   -0.0695   -4.9990  -11.2838 N   0  0  0  0  0  0  0  0  0  0  0  0
    1.2622   -4.9449  -11.6341 C   0  0  0  0  0  0  0  0  0  0  0  0
    1.4379   -5.5158  -12.8923 C   0  0  0  0  0  0  0  0  0  0  0  0
    0.1757   -5.6656  -13.3782 N   0  0  0  0  0  0  0  0  0  0  0  0
    2.6775   -5.6628  -13.5136 C   0  0  0  0  0  0  0  0  0  0  0  0
    3.3828   -4.4938  -13.2331 C   0  0  0  0  0  0  0  0  0  0  0  0
    3.4114   -3.9925  -11.9305 C   0  0  0  0  0  0  0  0  0  0  0  0
    2.3824   -4.3376  -11.0366 C   0  0  0  0  0  0  0  0  0  0  0  0
   -0.4988   -0.6346   -2.5162 O   0  0  0  0  0  0  0  0  0  0  0  0
   -1.6367   -0.7766   -1.6540 C   0  0  3  0  0  0  0  0  0  0  0  0
   -1.2784   -2.0129   -0.8526 C   0  0  3  0  0  0  0  0  0  0  0  0
   -0.3337   -1.5842    0.1552 O   0  0  0  0  0  0  0  0  0  0  0  0
   -2.7860   -0.8575   -2.4416 O   0  0  0  0  0  0  0  0  0  0  0  0
   -3.2767    0.3645   -3.0235 C   0  0  3  0  0  0  0  0  0  0  0  0
   -2.1802    1.2411   -3.6873 C   0  0  3  0  0  0  0  0  0  0  0  0
   -2.7208    2.1191   -4.6908 O   0  0  0  0  0  0  0  0  0  0  0  0
   -1.3784    2.0922   -2.6667 C   0  0  3  0  0  0  0  0  0  0  0  0
   -0.3924    2.9439   -3.3709 N   0  0  0  0  0  0  0  0  0  0  0  0
   -2.3113    2.8852   -1.7422 C   0  0  0  0  0  0  0  0  0  0  0  0
   -3.4151    2.0161   -1.0542 C   0  0  3  0  0  0  0  0  0  0  0  0
   -4.2079    1.1484   -2.0790 C   0  0  3  0  0  0  0  0  0  0  0  0
   -5.3234    0.3338   -1.6299 O   0  0  0  0  0  0  0  0  0  0  0  0
   -5.1770   -0.6061   -0.5592 C   0  0  3  0  0  0  0  0  0  0  0  0
   -4.4504   -1.7994   -0.8708 O   0  0  0  0  0  0  0  0  0  0  0  0
   -5.0796   -2.6847   -1.8283 C   0  0  3  0  0  0  0  0  0  0  0  0
   -4.0647   -3.7841   -2.1812 C   0  0  0  0  0  0  0  0  0  0  0  0
   -4.5177   -4.9736   -2.8767 N   0  0  0  0  0  0  0  0  0  0  0  0
   -6.3291   -3.2530   -1.1822 C   0  0  3  0  0  0  0  0  0  0  0  0
   -7.2736   -2.0857   -0.8853 C   0  0  3  0  0  0  0  0  0  0  0  0
   -6.5874   -1.0107    0.0050 C   0  0  3  0  0  0  0  0  0  0  0  0
   -7.4789    0.1507    0.2207 N   0  0  0  0  0  0  0  0  0  0  0  0
   -8.4432   -2.6240   -0.2508 O   0  0  0  0  0  0  0  0  0  0  0  0
   -6.0008   -3.9508    0.0390 O   0  0  0  0  0  0  0  0  0  0  0  0
   -4.2916    2.9096   -0.2793 N   0  0  0  0  0  0  0  0  0  0  0  0
    1.3647   -5.4783   -0.1524 C   0  0  3  0  0  0  0  0  0  0  0  0
    1.0286   -6.5223    0.9208 C   0  0  3  0  0  0  0  0  0  0  0  0
    0.4175   -5.8583    2.1646 C   0  0  3  0  0  0  0  0  0  0  0  0
    0.0687   -6.8054    3.1763 O   0  0  0  0  0  0  0  0  0  0  0  0
    2.2025   -7.2603    1.2669 O   0  0  0  0  0  0  0  0  0  0  0  0
    2.4726   -4.5766    0.2952 N   0  0  0  0  0  0  0  0  0  0  0  0
   -4.0966   -5.6701    1.3091 H   0  0  0  0  0  0  0  0  0  0  0  0
   -3.2163   -4.5924    0.4538 H   0  0  0  0  0  0  0  0  0  0  0  0
   -1.9413   -6.5066    0.6236 H   0  0  0  0  0  0  0  0  0  0  0  0
   -2.2425   -6.5415    2.3673 H   0  0  0  0  0  0  0  0  0  0  0  0
   -1.0405   -4.3624    2.6173 H   0  0  0  0  0  0  0  0  0  0  0  0
   -0.6482   -5.3793   -0.9857 H   0  0  0  0  0  0  0  0  0  0  0  0
   -1.3573   -3.6136   -2.3656 H   0  0  0  0  0  0  0  0  0  0  0  0
    0.9676   -1.9282   -2.9548 H   0  0  0  0  0  0  0  0  0  0  0  0
    0.0613   -3.0447   -4.8224 H   0  0  0  0  0  0  0  0  0  0  0  0
   -0.2061   -1.3104   -5.0422 H   0  0  0  0  0  0  0  0  0  0  0  0
   -1.9554   -4.5763   -5.1064 H   0  0  0  0  0  0  0  0  0  0  0  0
   -5.8013   -3.9035   -5.5135 H   0  0  0  0  0  0  0  0  0  0  0  0
   -4.6519   -5.1985   -5.8388 H   0  0  0  0  0  0  0  0  0  0  0  0
   -5.3489   -2.9008   -7.7498 H   0  0  0  0  0  0  0  0  0  0  0  0
   -5.8620   -4.5897   -7.8959 H   0  0  0  0  0  0  0  0  0  0  0  0
   -4.8417   -4.5917  -10.0757 H   0  0  0  0  0  0  0  0  0  0  0  0
   -2.1412   -5.5153   -9.8679 H   0  0  0  0  0  0  0  0  0  0  0  0
   -2.1715   -3.7922  -10.3991 H   0  0  0  0  0  0  0  0  0  0  0  0
   -2.3522   -5.7473  -13.5478 H   0  0  0  0  0  0  0  0  0  0  0  0
   -0.0638   -5.8565  -14.3330 H   0  0  0  0  0  0  0  0  0  0  0  0
    3.2314   -6.5290  -13.0837 H   0  0  0  0  0  0  0  0  0  0  0  0
    3.5435   -3.7859  -14.0504 H   0  0  0  0  0  0  0  0  0  0  0  0
    4.0886   -3.1792  -11.6837 H   0  0  0  0  0  0  0  0  0  0  0  0
    2.3280   -3.8846  -10.0545 H   0  0  0  0  0  0  0  0  0  0  0  0
   -1.6935    0.0424   -0.9529 H   0  0  0  0  0  0  0  0  0  0  0  0
   -2.1244   -2.4736   -0.3429 H   0  0  0  0  0  0  0  0  0  0  0  0
    0.2905   -0.9687   -0.2646 H   0  0  0  0  0  0  0  0  0  0  0  0
   -3.9642    0.0386   -3.8116 H   0  0  0  0  0  0  0  0  0  0  0  0
   -1.4836    0.6132   -4.2350 H   0  0  0  0  0  0  0  0  0  0  0  0
   -3.3420    2.7404   -4.2850 H   0  0  0  0  0  0  0  0  0  0  0  0
   -0.7599    1.4918   -2.0057 H   0  0  0  0  0  0  0  0  0  0  0  0
   -0.8508    3.3034   -4.2146 H   0  0  0  0  0  0  0  0  0  0  0  0
    0.3206    2.3151   -3.7598 H   0  0  0  0  0  0  0  0  0  0  0  0
   -2.7718    3.6990   -2.3141 H   0  0  0  0  0  0  0  0  0  0  0  0
   -1.6963    3.3599   -0.9650 H   0  0  0  0  0  0  0  0  0  0  0  0
   -2.9578    1.3673   -0.3061 H   0  0  0  0  0  0  0  0  0  0  0  0
   -4.7093    1.8841   -2.7248 H   0  0  0  0  0  0  0  0  0  0  0  0
   -4.6354   -0.1101    0.2516 H   0  0  0  0  0  0  0  0  0  0  0  0
   -5.3320   -2.1249   -2.7414 H   0  0  0  0  0  0  0  0  0  0  0  0
   -3.5112   -4.0925   -1.3026 H   0  0  0  0  0  0  0  0  0  0  0  0
   -3.3316   -3.2860   -2.7856 H   0  0  0  0  0  0  0  0  0  0  0  0
   -4.9812   -5.6045   -2.2209 H   0  0  0  0  0  0  0  0  0  0  0  0
   -3.7108   -5.4898   -3.2359 H   0  0  0  0  0  0  0  0  0  0  0  0
   -6.8282   -3.9832   -1.8288 H   0  0  0  0  0  0  0  0  0  0  0  0
   -7.5951   -1.6384   -1.8343 H   0  0  0  0  0  0  0  0  0  0  0  0
   -6.4284   -1.4724    0.9878 H   0  0  0  0  0  0  0  0  0  0  0  0
   -7.6210    0.5957   -0.6894 H   0  0  0  0  0  0  0  0  0  0  0  0
   -6.9799    0.8497    0.7702 H   0  0  0  0  0  0  0  0  0  0  0  0
   -8.1159   -3.1968    0.4684 H   0  0  0  0  0  0  0  0  0  0  0  0
   -5.2587   -3.4719    0.4605 H   0  0  0  0  0  0  0  0  0  0  0  0
   -4.6339    3.6630   -0.8777 H   0  0  0  0  0  0  0  0  0  0  0  0
   -3.7340    3.3764    0.4397 H   0  0  0  0  0  0  0  0  0  0  0  0
    1.7471   -5.9727   -1.0540 H   0  0  0  0  0  0  0  0  0  0  0  0
    0.3250   -7.2511    0.5064 H   0  0  0  0  0  0  0  0  0  0  0  0
    1.1708   -5.1975    2.6198 H   0  0  0  0  0  0  0  0  0  0  0  0
   -0.0259   -7.6823    2.7527 H   0  0  0  0  0  0  0  0  0  0  0  0
    2.9162   -6.5915    1.3118 H   0  0  0  0  0  0  0  0  0  0  0  0
    2.0836   -3.9253    0.9881 H   0  0  0  0  0  0  0  0  0  0  0  0
    2.6554   -3.9405   -0.4923 H   0  0  0  0  0  0  0  0  0  0  0  0
  1  2  1  0  0  0  0
  1 65  1  0  0  0  0
  1 66  1  0  0  0  0
  2  3  1  0  0  0  0
  2 67  1  0  0  0  0
  2 68  1  0  0  0  0
  3  4  1  0  0  0  0
  3 61  1  0  0  0  0
  3 69  1  0  0  0  0
  4  5  1  0  0  0  0
  5  6  1  0  0  0  0
  5 59  1  0  0  0  0
  5 70  1  0  0  0  0
  6  7  1  0  0  0  0
  7  8  1  0  0  0  0
  7 35  1  0  0  0  0
  7 71  1  0  0  0  0
  8  9  1  0  0  0  0
  8 33  1  0  0  0  0
  8 72  1  0  0  0  0
  9 10  1  0  0  0  0
  9 73  1  0  0  0  0
  9 74  1  0  0  0  0
 10 11  1  0  0  0  0
 10 14  1  0  0  0  0
 11 12  2  0  0  0  0
 12 13  1  0  0  0  0
 13 14  2  0  0  0  0
 13 15  1  0  0  0  0
 14 75  1  0  0  0  0
 15 16  1  0  0  0  0
 15 76  1  0  0  0  0
 15 77  1  0  0  0  0
 16 17  1  0  0  0  0
 16 78  1  0  0  0  0
 16 79  1  0  0  0  0
 17 18  2  0  0  0  0
 17 19  1  0  0  0  0
 19 20  1  0  0  0  0
 19 80  1  0  0  0  0
 20 21  1  0  0  0  0
 20 81  1  0  0  0  0
 20 82  1  0  0  0  0
 21 22  2  0  0  0  0
 21 23  1  0  0  0  0
 23 24  1  0  0  0  0
 23 83  1  0  0  0  0
 24 25  2  0  0  0  0
 24 28  1  0  0  0  0
 25 26  1  0  0  0  0
 26 27  1  0  0  0  0
 26 32  2  0  0  0  0
 27 28  1  0  0  0  0
 27 29  2  0  0  0  0
 28 84  1  0  0  0  0
 29 30  1  0  0  0  0
 29 85  1  0  0  0  0
 30 31  2  0  0  0  0
 30 86  1  0  0  0  0
 31 32  1  0  0  0  0
 31 87  1  0  0  0  0
 32 88  1  0  0  0  0
 33 34  1  0  0  0  0
 34 35  1  0  0  0  0
 34 37  1  0  0  0  0
 34 89  1  0  0  0  0
 35 36  1  0  0  0  0
 35 90  1  0  0  0  0
 36 91  1  0  0  0  0
 37 38  1  0  0  0  0
 38 39  1  0  0  0  0
 38 45  1  0  0  0  0
 38 92  1  0  0  0  0
 39 40  1  0  0  0  0
 39 41  1  0  0  0  0
 39 93  1  0  0  0  0
 40 94  1  0  0  0  0
 41 42  1  0  0  0  0
 41 43  1  0  0  0  0
 41 95  1  0  0  0  0
 42 96  1  0  0  0  0
 42 97  1  0  0  0  0
 43 44  1  0  0  0  0
 43 98  1  0  0  0  0
 43 99  1  0  0  0  0
 44 45  1  0  0  0  0
 44 58  1  0  0  0  0
 44100  1  0  0  0  0
 45 46  1  0  0  0  0
 45101  1  0  0  0  0
 46 47  1  0  0  0  0
 47 48  1  0  0  0  0
 47 54  1  0  0  0  0
 47102  1  0  0  0  0
 48 49  1  0  0  0  0
 49 50  1  0  0  0  0
 49 52  1  0  0  0  0
 49103  1  0  0  0  0
 50 51  1  0  0  0  0
 50104  1  0  0  0  0
 50105  1  0  0  0  0
 51106  1  0  0  0  0
 51107  1  0  0  0  0
 52 53  1  0  0  0  0
 52 57  1  0  0  0  0
 52108  1  0  0  0  0
 53 54  1  0  0  0  0
 53 56  1  0  0  0  0
 53109  1  0  0  0  0
 54 55  1  0  0  0  0
 54110  1  0  0  0  0
 55111  1  0  0  0  0
 55112  1  0  0  0  0
 56113  1  0  0  0  0
 57114  1  0  0  0  0
 58115  1  0  0  0  0
 58116  1  0  0  0  0
 59 60  1  0  0  0  0
 59 64  1  0  0  0  0
 59117  1  0  0  0  0
 60 61  1  0  0  0  0
 60 63  1  0  0  0  0
 60118  1  0  0  0  0
 61 62  1  0  0  0  0
 61119  1  0  0  0  0
 62120  1  0  0  0  0
 63121  1  0  0  0  0
 64122  1  0  0  0  0
 64123  1  0  0  0  0
M  END
$$$$
Target_lig_761
 OpenBabel04172506213D

126132  0  0  1  0  0  0  0  0999 V2000
    0.8761   -0.5999    1.2246 N   0  0  0  0  0  0  0  0  0  0  0  0
    1.7968   -0.3853    0.1270 C   0  0  0  0  0  0  0  0  0  0  0  0
    3.0529   -1.2789   -0.0227 C   0  0  3  0  0  0  0  0  0  0  0  0
    3.8974   -0.7074   -1.0260 O   0  0  0  0  0  0  0  0  0  0  0  0
    3.3816   -0.8118   -2.3493 C   0  0  3  0  0  0  0  0  0  0  0  0
    3.9493    0.1786   -3.2064 O   0  0  0  0  0  0  0  0  0  0  0  0
    3.7739    1.5518   -2.8108 C   0  0  3  0  0  0  0  0  0  0  0  0
    4.3632    1.9650   -1.4432 C   0  0  3  0  0  0  0  0  0  0  0  0
    5.7927    2.5135   -1.4166 C   0  0  0  0  0  0  0  0  0  0  0  0
    6.8537    1.6049   -1.7378 N   0  0  0  0  0  0  0  0  0  0  0  0
    8.1452    1.9753   -1.6579 N   0  0  0  0  0  0  0  0  0  0  0  0
    8.8828    0.8835   -1.8550 N   0  0  0  0  0  0  0  0  0  0  0  0
    8.0359   -0.1579   -2.0797 C   0  0  0  0  0  0  0  0  0  0  0  0
    6.7535    0.3073   -2.0412 C   0  0  0  0  0  0  0  0  0  0  0  0
    8.3669   -1.5706   -2.2409 C   0  0  0  0  0  0  0  0  0  0  0  0
    9.8269   -1.9122   -2.1271 C   0  0  0  0  0  0  0  0  0  0  0  0
    9.9419   -3.4119   -2.2441 C   0  0  0  0  0  0  0  0  0  0  0  0
    8.9618   -4.1204   -2.4586 O   0  0  0  0  0  0  0  0  0  0  0  0
   11.2362   -3.8501   -2.0618 N   0  0  0  0  0  0  0  0  0  0  0  0
   11.6495   -5.1942   -2.1358 C   0  0  0  0  0  0  0  0  0  0  0  0
   10.8615   -6.1937   -2.7148 C   0  0  0  0  0  0  0  0  0  0  0  0
   11.2755   -7.5252   -2.7016 C   0  0  0  0  0  0  0  0  0  0  0  0
   12.4990   -7.8535   -2.1404 C   0  0  0  0  0  0  0  0  0  0  0  0
   13.3355   -6.8603   -1.6155 C   0  0  0  0  0  0  0  0  0  0  0  0
   12.9009   -5.5278   -1.6086 C   0  0  0  0  0  0  0  0  0  0  0  0
   14.6407   -7.2145   -1.0778 C   0  0  0  0  0  0  0  0  0  0  0  0
   15.4101   -8.2422   -1.5887 C   0  0  0  0  0  0  0  0  0  0  0  0
   16.8732   -8.3685   -0.7115 S   0  0  0  0  0  0  0  0  0  0  0  0
   16.3516   -7.0862    0.2882 C   0  0  0  0  0  0  0  0  0  0  0  0
   15.2042   -6.5356   -0.0123 N   0  0  0  0  0  0  0  0  0  0  0  0
   17.2276   -6.8108    1.2982 N   0  0  0  0  0  0  0  0  0  0  0  0
   16.9296   -5.9463    2.3235 C   0  0  0  0  0  0  0  0  0  0  0  0
   15.8799   -5.3396    2.5001 O   0  0  0  0  0  0  0  0  0  0  0  0
   18.0631   -5.8120    3.3105 C   0  0  0  0  0  0  0  0  0  0  0  0
    3.5021    2.9504   -0.8961 O   0  0  0  0  0  0  0  0  0  0  0  0
    2.2292    2.9023   -1.5097 C   0  0  3  0  0  0  0  0  0  0  0  0
    2.3330    2.1137   -2.8263 C   0  0  3  0  0  0  0  0  0  0  0  0
    1.3163    1.1176   -2.9854 O   0  0  0  0  0  0  0  0  0  0  0  0
    1.7980    4.2281   -1.7467 O   0  0  0  0  0  0  0  0  0  0  0  0
    1.9804    5.0843   -0.6009 C   0  0  3  0  0  0  0  0  0  0  0  0
    0.7837    5.0250    0.3553 C   0  0  3  0  0  0  0  0  0  0  0  0
    1.0752    5.7601    1.5579 O   0  0  0  0  0  0  0  0  0  0  0  0
   -0.5163    5.5292   -0.3039 C   0  0  3  0  0  0  0  0  0  0  0  0
   -1.6137    5.6007    0.7123 N   0  0  0  0  0  0  0  0  0  0  0  0
   -0.2733    6.8993   -1.0106 C   0  0  0  0  0  0  0  0  0  0  0  0
    1.0002    6.9270   -1.9277 C   0  0  3  0  0  0  0  0  0  0  0  0
    2.2511    6.4966   -1.1389 C   0  0  3  0  0  0  0  0  0  0  0  0
    3.4552    6.5926   -1.9693 O   0  0  0  0  0  0  0  0  0  0  0  0
    4.6344    6.1568   -1.2823 C   0  0  3  0  0  0  0  0  0  0  0  0
    4.9517    6.9293   -0.1247 O   0  0  0  0  0  0  0  0  0  0  0  0
    5.5916    8.1836   -0.4165 C   0  0  3  0  0  0  0  0  0  0  0  0
    5.8176    8.8874    0.9126 C   0  0  0  0  0  0  0  0  0  0  0  0
    6.6373    7.9845    1.7230 N   0  0  0  0  0  0  0  0  0  0  0  0
    6.9590    7.9692   -1.0784 C   0  0  3  0  0  0  0  0  0  0  0  0
    6.6861    7.2835   -2.4080 C   0  0  3  0  0  0  0  0  0  0  0  0
    5.8505    6.0030   -2.2330 C   0  0  3  0  0  0  0  0  0  0  0  0
    5.3600    5.5136   -3.5238 N   0  0  0  0  0  0  0  0  0  0  0  0
    7.9422    7.0342   -3.0515 O   0  0  0  0  0  0  0  0  0  0  0  0
    7.8620    7.1951   -0.2638 O   0  0  0  0  0  0  0  0  0  0  0  0
    1.2738    8.2346   -2.5207 N   0  0  0  0  0  0  0  0  0  0  0  0
    3.6842   -2.2477   -2.7951 C   0  0  3  0  0  0  0  0  0  0  0  0
    2.9401   -3.1763   -1.8235 C   0  0  3  0  0  0  0  0  0  0  0  0
    2.9402   -2.7840   -0.3003 C   0  0  3  0  0  0  0  0  0  0  0  0
    1.8256   -3.3723    0.3748 O   0  0  0  0  0  0  0  0  0  0  0  0
    3.5693   -4.4663   -2.0009 O   0  0  0  0  0  0  0  0  0  0  0  0
    5.0968   -2.7271   -2.7742 N   0  0  0  0  0  0  0  0  0  0  0  0
    0.0774    0.0253    1.1381 H   0  0  0  0  0  0  0  0  0  0  0  0
    1.3206   -0.3873    2.1167 H   0  0  0  0  0  0  0  0  0  0  0  0
    2.1570    0.6458    0.2189 H   0  0  0  0  0  0  0  0  0  0  0  0
    1.2049   -0.4081   -0.7870 H   0  0  0  0  0  0  0  0  0  0  0  0
    3.6085   -1.1642    0.9190 H   0  0  0  0  0  0  0  0  0  0  0  0
    2.3026   -0.7139   -2.3853 H   0  0  0  0  0  0  0  0  0  0  0  0
    4.3189    2.1260   -3.5727 H   0  0  0  0  0  0  0  0  0  0  0  0
    4.3508    1.1975   -0.6873 H   0  0  0  0  0  0  0  0  0  0  0  0
    6.0024    2.8778   -0.4016 H   0  0  0  0  0  0  0  0  0  0  0  0
    5.8800    3.3560   -2.0903 H   0  0  0  0  0  0  0  0  0  0  0  0
    5.8434   -0.2240   -2.1521 H   0  0  0  0  0  0  0  0  0  0  0  0
    7.9740   -1.9149   -3.2075 H   0  0  0  0  0  0  0  0  0  0  0  0
    7.8077   -2.1259   -1.4708 H   0  0  0  0  0  0  0  0  0  0  0  0
   10.2263   -1.5869   -1.1608 H   0  0  0  0  0  0  0  0  0  0  0  0
   10.3997   -1.4413   -2.9326 H   0  0  0  0  0  0  0  0  0  0  0  0
   11.9084   -3.1798   -1.7059 H   0  0  0  0  0  0  0  0  0  0  0  0
    9.9086   -5.9762   -3.1826 H   0  0  0  0  0  0  0  0  0  0  0  0
   10.6312   -8.2850   -3.1212 H   0  0  0  0  0  0  0  0  0  0  0  0
   12.7806   -8.9017   -2.1132 H   0  0  0  0  0  0  0  0  0  0  0  0
   13.5376   -4.7644   -1.1660 H   0  0  0  0  0  0  0  0  0  0  0  0
   15.1926   -8.9082   -2.4109 H   0  0  0  0  0  0  0  0  0  0  0  0
   18.0793   -7.3525    1.3037 H   0  0  0  0  0  0  0  0  0  0  0  0
   18.9650   -6.3330    2.9758 H   0  0  0  0  0  0  0  0  0  0  0  0
   17.7538   -6.2341    4.2705 H   0  0  0  0  0  0  0  0  0  0  0  0
   18.3048   -4.7527    3.4310 H   0  0  0  0  0  0  0  0  0  0  0  0
    1.5048    2.4354   -0.8375 H   0  0  0  0  0  0  0  0  0  0  0  0
    2.2134    2.7849   -3.6860 H   0  0  0  0  0  0  0  0  0  0  0  0
    0.5901    1.2467   -2.3517 H   0  0  0  0  0  0  0  0  0  0  0  0
    2.8403    4.7948    0.0023 H   0  0  0  0  0  0  0  0  0  0  0  0
    0.6368    3.9850    0.6686 H   0  0  0  0  0  0  0  0  0  0  0  0
    1.0716    6.7125    1.3593 H   0  0  0  0  0  0  0  0  0  0  0  0
   -0.8280    4.8068   -1.0683 H   0  0  0  0  0  0  0  0  0  0  0  0
   -1.1975    5.9620    1.5776 H   0  0  0  0  0  0  0  0  0  0  0  0
   -1.9236    4.6542    0.9562 H   0  0  0  0  0  0  0  0  0  0  0  0
   -0.1863    7.6875   -0.2518 H   0  0  0  0  0  0  0  0  0  0  0  0
   -1.1620    7.1407   -1.6087 H   0  0  0  0  0  0  0  0  0  0  0  0
    0.8298    6.2475   -2.7719 H   0  0  0  0  0  0  0  0  0  0  0  0
    2.3984    7.1979   -0.3086 H   0  0  0  0  0  0  0  0  0  0  0  0
    4.4701    5.1438   -0.9290 H   0  0  0  0  0  0  0  0  0  0  0  0
    4.9344    8.7881   -1.0495 H   0  0  0  0  0  0  0  0  0  0  0  0
    4.8630    9.0777    1.4145 H   0  0  0  0  0  0  0  0  0  0  0  0
    6.3348    9.8419    0.7710 H   0  0  0  0  0  0  0  0  0  0  0  0
    6.0536    7.1831    1.9819 H   0  0  0  0  0  0  0  0  0  0  0  0
    6.8103    8.4602    2.6141 H   0  0  0  0  0  0  0  0  0  0  0  0
    7.4704    8.9203   -1.2577 H   0  0  0  0  0  0  0  0  0  0  0  0
    6.1390    7.9793   -3.0538 H   0  0  0  0  0  0  0  0  0  0  0  0
    6.5388    5.2703   -1.7938 H   0  0  0  0  0  0  0  0  0  0  0  0
    4.6804    6.1959   -3.8668 H   0  0  0  0  0  0  0  0  0  0  0  0
    4.8409    4.6533   -3.4037 H   0  0  0  0  0  0  0  0  0  0  0  0
    8.4873    6.5169   -2.4273 H   0  0  0  0  0  0  0  0  0  0  0  0
    7.3417    6.8284    0.4725 H   0  0  0  0  0  0  0  0  0  0  0  0
    1.4630    8.9596   -1.8349 H   0  0  0  0  0  0  0  0  0  0  0  0
    0.4846    8.5556   -3.0860 H   0  0  0  0  0  0  0  0  0  0  0  0
    3.3412   -2.4059   -3.8237 H   0  0  0  0  0  0  0  0  0  0  0  0
    1.9013   -3.2771   -2.1562 H   0  0  0  0  0  0  0  0  0  0  0  0
    3.8415   -3.2455    0.1293 H   0  0  0  0  0  0  0  0  0  0  0  0
    1.7207   -4.2434   -0.0493 H   0  0  0  0  0  0  0  0  0  0  0  0
    4.4495   -4.2836   -2.4198 H   0  0  0  0  0  0  0  0  0  0  0  0
    5.5217   -2.4198   -1.8933 H   0  0  0  0  0  0  0  0  0  0  0  0
    5.6253   -2.2107   -3.4861 H   0  0  0  0  0  0  0  0  0  0  0  0
  1  2  1  0  0  0  0
  1 67  1  0  0  0  0
  1 68  1  0  0  0  0
  2  3  1  0  0  0  0
  2 69  1  0  0  0  0
  2 70  1  0  0  0  0
  3  4  1  0  0  0  0
  3 63  1  0  0  0  0
  3 71  1  0  0  0  0
  4  5  1  0  0  0  0
  5  6  1  0  0  0  0
  5 61  1  0  0  0  0
  5 72  1  0  0  0  0
  6  7  1  0  0  0  0
  7  8  1  0  0  0  0
  7 37  1  0  0  0  0
  7 73  1  0  0  0  0
  8  9  1  0  0  0  0
  8 35  1  0  0  0  0
  8 74  1  0  0  0  0
  9 10  1  0  0  0  0
  9 75  1  0  0  0  0
  9 76  1  0  0  0  0
 10 11  1  0  0  0  0
 10 14  1  0  0  0  0
 11 12  2  0  0  0  0
 12 13  1  0  0  0  0
 13 14  2  0  0  0  0
 13 15  1  0  0  0  0
 14 77  1  0  0  0  0
 15 16  1  0  0  0  0
 15 78  1  0  0  0  0
 15 79  1  0  0  0  0
 16 17  1  0  0  0  0
 16 80  1  0  0  0  0
 16 81  1  0  0  0  0
 17 18  2  0  0  0  0
 17 19  1  0  0  0  0
 19 20  1  0  0  0  0
 19 82  1  0  0  0  0
 20 21  1  0  0  0  0
 20 25  2  0  0  0  0
 21 22  2  0  0  0  0
 21 83  1  0  0  0  0
 22 23  1  0  0  0  0
 22 84  1  0  0  0  0
 23 24  2  0  0  0  0
 23 85  1  0  0  0  0
 24 25  1  0  0  0  0
 24 26  1  0  0  0  0
 25 86  1  0  0  0  0
 26 27  2  0  0  0  0
 26 30  1  0  0  0  0
 27 28  1  0  0  0  0
 27 87  1  0  0  0  0
 28 29  1  0  0  0  0
 29 30  2  0  0  0  0
 29 31  1  0  0  0  0
 31 32  1  0  0  0  0
 31 88  1  0  0  0  0
 32 33  2  0  0  0  0
 32 34  1  0  0  0  0
 34 89  1  0  0  0  0
 34 90  1  0  0  0  0
 34 91  1  0  0  0  0
 35 36  1  0  0  0  0
 36 37  1  0  0  0  0
 36 39  1  0  0  0  0
 36 92  1  0  0  0  0
 37 38  1  0  0  0  0
 37 93  1  0  0  0  0
 38 94  1  0  0  0  0
 39 40  1  0  0  0  0
 40 41  1  0  0  0  0
 40 47  1  0  0  0  0
 40 95  1  0  0  0  0
 41 42  1  0  0  0  0
 41 43  1  0  0  0  0
 41 96  1  0  0  0  0
 42 97  1  0  0  0  0
 43 44  1  0  0  0  0
 43 45  1  0  0  0  0
 43 98  1  0  0  0  0
 44 99  1  0  0  0  0
 44100  1  0  0  0  0
 45 46  1  0  0  0  0
 45101  1  0  0  0  0
 45102  1  0  0  0  0
 46 47  1  0  0  0  0
 46 60  1  0  0  0  0
 46103  1  0  0  0  0
 47 48  1  0  0  0  0
 47104  1  0  0  0  0
 48 49  1  0  0  0  0
 49 50  1  0  0  0  0
 49 56  1  0  0  0  0
 49105  1  0  0  0  0
 50 51  1  0  0  0  0
 51 52  1  0  0  0  0
 51 54  1  0  0  0  0
 51106  1  0  0  0  0
 52 53  1  0  0  0  0
 52107  1  0  0  0  0
 52108  1  0  0  0  0
 53109  1  0  0  0  0
 53110  1  0  0  0  0
 54 55  1  0  0  0  0
 54 59  1  0  0  0  0
 54111  1  0  0  0  0
 55 56  1  0  0  0  0
 55 58  1  0  0  0  0
 55112  1  0  0  0  0
 56 57  1  0  0  0  0
 56113  1  0  0  0  0
 57114  1  0  0  0  0
 57115  1  0  0  0  0
 58116  1  0  0  0  0
 59117  1  0  0  0  0
 60118  1  0  0  0  0
 60119  1  0  0  0  0
 61 62  1  0  0  0  0
 61 66  1  0  0  0  0
 61120  1  0  0  0  0
 62 63  1  0  0  0  0
 62 65  1  0  0  0  0
 62121  1  0  0  0  0
 63 64  1  0  0  0  0
 63122  1  0  0  0  0
 64123  1  0  0  0  0
 65124  1  0  0  0  0
 66125  1  0  0  0  0
 66126  1  0  0  0  0
M  END
$$$$
Target_lig_762
 OpenBabel04172506213D

136143  0  0  1  0  0  0  0  0999 V2000
    7.5001    5.3770    3.8447 N   0  0  0  0  0  0  0  0  0  0  0  0
    6.9429    5.9870    2.6347 C   0  0  0  0  0  0  0  0  0  0  0  0
    5.5183    6.4947    2.9214 C   0  0  3  0  0  0  0  0  0  0  0  0
    4.6866    5.3863    3.3900 O   0  0  0  0  0  0  0  0  0  0  0  0
    4.1560    4.5529    2.3586 C   0  0  3  0  0  0  0  0  0  0  0  0
    3.2525    3.5449    2.8572 O   0  0  0  0  0  0  0  0  0  0  0  0
    3.7959    2.5737    3.7423 C   0  0  3  0  0  0  0  0  0  0  0  0
    4.8640    1.6612    3.1571 C   0  0  3  0  0  0  0  0  0  0  0  0
    6.2873    2.2092    3.1368 C   0  0  0  0  0  0  0  0  0  0  0  0
    7.2430    1.2415    2.6399 N   0  0  0  0  0  0  0  0  0  0  0  0
    8.3657    1.6328    2.0137 N   0  0  0  0  0  0  0  0  0  0  0  0
    9.1424    0.5580    1.8902 N   0  0  0  0  0  0  0  0  0  0  0  0
    8.4767   -0.5018    2.4353 C   0  0  0  0  0  0  0  0  0  0  0  0
    7.2416   -0.0934    2.8458 C   0  0  0  0  0  0  0  0  0  0  0  0
    8.9979   -1.8778    2.5429 C   0  0  0  0  0  0  0  0  0  0  0  0
    8.0742   -2.8859    1.8644 C   0  0  0  0  0  0  0  0  0  0  0  0
    8.1585   -2.7440    0.3609 C   0  0  0  0  0  0  0  0  0  0  0  0
    8.9827   -3.4134   -0.2452 O   0  0  0  0  0  0  0  0  0  0  0  0
    7.2724   -1.8196   -0.1860 N   0  0  0  0  0  0  0  0  0  0  0  0
    7.1808   -1.4720   -1.5541 C   0  0  0  0  0  0  0  0  0  0  0  0
    7.8358   -2.1999   -2.5482 C   0  0  0  0  0  0  0  0  0  0  0  0
    7.7820   -1.8034   -3.8800 C   0  0  0  0  0  0  0  0  0  0  0  0
    7.0468   -0.6799   -4.2364 C   0  0  0  0  0  0  0  0  0  0  0  0
    6.3381    0.0661   -3.2785 C   0  0  0  0  0  0  0  0  0  0  0  0
    6.4146   -0.3512   -1.9325 C   0  0  0  0  0  0  0  0  0  0  0  0
    5.5466    1.2437   -3.6741 C   0  0  0  0  0  0  0  0  0  0  0  0
    5.5238    1.7476   -4.9663 C   0  0  0  0  0  0  0  0  0  0  0  0
    4.5545    3.1542   -5.0521 S   0  0  0  0  0  0  0  0  0  0  0  0
    4.1361    2.9379   -3.4102 C   0  0  0  0  0  0  0  0  0  0  0  0
    4.7187    1.9408   -2.7858 N   0  0  0  0  0  0  0  0  0  0  0  0
    3.1976    3.8533   -3.0015 N   0  0  0  0  0  0  0  0  0  0  0  0
    2.4854    3.7381   -1.8308 C   0  0  0  0  0  0  0  0  0  0  0  0
    2.6830    2.8864   -0.9670 O   0  0  0  0  0  0  0  0  0  0  0  0
    1.4149    4.7857   -1.5849 C   0  0  0  0  0  0  0  0  0  0  0  0
    1.1116    5.8423   -2.4532 C   0  0  0  0  0  0  0  0  0  0  0  0
    0.3201    6.9221   -2.0167 C   0  0  0  0  0  0  0  0  0  0  0  0
   -0.1669    6.9706   -0.7076 C   0  0  0  0  0  0  0  0  0  0  0  0
    0.0374    5.8662    0.1136 C   0  0  0  0  0  0  0  0  0  0  0  0
    0.7715    4.7656   -0.3392 C   0  0  0  0  0  0  0  0  0  0  0  0
   -0.8107    8.2000   -0.1351 C   0  0  0  0  0  0  0  0  0  0  0  0
    4.8257    0.5351    4.0546 O   0  0  0  0  0  0  0  0  0  0  0  0
    3.4628    0.1440    4.1725 C   0  0  3  0  0  0  0  0  0  0  0  0
    2.7350    1.5201    4.2301 C   0  0  3  0  0  0  0  0  0  0  0  0
    1.5412    1.4922    3.4406 O   0  0  0  0  0  0  0  0  0  0  0  0
    3.3683   -0.7689    5.2726 O   0  0  0  0  0  0  0  0  0  0  0  0
    2.1679   -1.5738    5.3353 C   0  0  3  0  0  0  0  0  0  0  0  0
    1.0629   -0.7153    5.9893 C   0  0  3  0  0  0  0  0  0  0  0  0
   -0.1599   -1.4553    6.0878 O   0  0  0  0  0  0  0  0  0  0  0  0
    1.5514   -0.2157    7.3735 C   0  0  3  0  0  0  0  0  0  0  0  0
    0.5202    0.5993    8.0395 N   0  0  0  0  0  0  0  0  0  0  0  0
    1.9281   -1.3778    8.2977 C   0  0  0  0  0  0  0  0  0  0  0  0
    2.8377   -2.4445    7.6513 C   0  0  3  0  0  0  0  0  0  0  0  0
    2.3125   -2.8755    6.2428 C   0  0  3  0  0  0  0  0  0  0  0  0
    3.0630   -3.9631    5.6026 O   0  0  0  0  0  0  0  0  0  0  0  0
    2.5950   -5.2848    6.0164 C   0  0  3  0  0  0  0  0  0  0  0  0
    3.1766   -5.7495    7.2385 O   0  0  0  0  0  0  0  0  0  0  0  0
    4.5860   -6.0113    7.1219 C   0  0  3  0  0  0  0  0  0  0  0  0
    5.2297   -6.0542    8.5299 C   0  0  0  0  0  0  0  0  0  0  0  0
    4.5179   -6.7849    9.5815 N   0  0  0  0  0  0  0  0  0  0  0  0
    4.7243   -7.2913    6.2977 C   0  0  3  0  0  0  0  0  0  0  0  0
    4.1807   -6.9982    4.8830 C   0  0  3  0  0  0  0  0  0  0  0  0
    2.7407   -6.4153    4.9317 C   0  0  3  0  0  0  0  0  0  0  0  0
    2.2384   -6.0372    3.5948 N   0  0  0  0  0  0  0  0  0  0  0  0
    4.2122   -8.2237    4.1307 O   0  0  0  0  0  0  0  0  0  0  0  0
    3.9642   -8.3771    6.8666 O   0  0  0  0  0  0  0  0  0  0  0  0
    2.9067   -3.5355    8.6213 N   0  0  0  0  0  0  0  0  0  0  0  0
    3.3395    5.4370    1.4215 C   0  0  3  0  0  0  0  0  0  0  0  0
    4.2545    6.4330    0.7223 C   0  0  3  0  0  0  0  0  0  0  0  0
    4.9196    7.3252    1.7572 C   0  0  3  0  0  0  0  0  0  0  0  0
    5.8872    8.1467    1.0979 O   0  0  0  0  0  0  0  0  0  0  0  0
    3.5351    7.2499   -0.2144 O   0  0  0  0  0  0  0  0  0  0  0  0
    2.2468    6.1071    2.1836 N   0  0  0  0  0  0  0  0  0  0  0  0
    8.3217    4.8218    3.6115 H   0  0  0  0  0  0  0  0  0  0  0  0
    6.8060    4.7717    4.2770 H   0  0  0  0  0  0  0  0  0  0  0  0
    6.9245    5.2403    1.8350 H   0  0  0  0  0  0  0  0  0  0  0  0
    7.6000    6.8021    2.3205 H   0  0  0  0  0  0  0  0  0  0  0  0
    5.5888    7.1800    3.7761 H   0  0  0  0  0  0  0  0  0  0  0  0
    4.9351    4.0784    1.7635 H   0  0  0  0  0  0  0  0  0  0  0  0
    4.1815    3.0839    4.6339 H   0  0  0  0  0  0  0  0  0  0  0  0
    4.5823    1.3274    2.1485 H   0  0  0  0  0  0  0  0  0  0  0  0
    6.6266    2.4724    4.1434 H   0  0  0  0  0  0  0  0  0  0  0  0
    6.3916    3.0758    2.4904 H   0  0  0  0  0  0  0  0  0  0  0  0
    6.4444   -0.6553    3.3019 H   0  0  0  0  0  0  0  0  0  0  0  0
    9.0515   -2.1244    3.6115 H   0  0  0  0  0  0  0  0  0  0  0  0
   10.0147   -1.9332    2.1458 H   0  0  0  0  0  0  0  0  0  0  0  0
    7.0281   -2.7989    2.1845 H   0  0  0  0  0  0  0  0  0  0  0  0
    8.3905   -3.9026    2.1252 H   0  0  0  0  0  0  0  0  0  0  0  0
    6.7575   -1.2301    0.4565 H   0  0  0  0  0  0  0  0  0  0  0  0
    8.3993   -3.0984   -2.3228 H   0  0  0  0  0  0  0  0  0  0  0  0
    8.3209   -2.3732   -4.6310 H   0  0  0  0  0  0  0  0  0  0  0  0
    7.0558   -0.4054   -5.2864 H   0  0  0  0  0  0  0  0  0  0  0  0
    5.8953    0.2319   -1.1743 H   0  0  0  0  0  0  0  0  0  0  0  0
    6.0124    1.3895   -5.8597 H   0  0  0  0  0  0  0  0  0  0  0  0
    2.9975    4.5757   -3.6717 H   0  0  0  0  0  0  0  0  0  0  0  0
    1.4952    5.8873   -3.4653 H   0  0  0  0  0  0  0  0  0  0  0  0
    0.1240    7.7477   -2.6981 H   0  0  0  0  0  0  0  0  0  0  0  0
   -0.2915    5.8918    1.1517 H   0  0  0  0  0  0  0  0  0  0  0  0
    0.9572    3.9522    0.3622 H   0  0  0  0  0  0  0  0  0  0  0  0
   -1.2357    8.8345   -0.9173 H   0  0  0  0  0  0  0  0  0  0  0  0
   -0.0713    8.7842    0.4262 H   0  0  0  0  0  0  0  0  0  0  0  0
   -1.6207    7.9245    0.5490 H   0  0  0  0  0  0  0  0  0  0  0  0
    3.2062   -0.3994    3.2552 H   0  0  0  0  0  0  0  0  0  0  0  0
    2.4373    1.7735    5.2513 H   0  0  0  0  0  0  0  0  0  0  0  0
    1.7628    1.2152    2.5328 H   0  0  0  0  0  0  0  0  0  0  0  0
    1.8906   -1.8992    4.3259 H   0  0  0  0  0  0  0  0  0  0  0  0
    0.8310    0.1499    5.3699 H   0  0  0  0  0  0  0  0  0  0  0  0
   -0.4514   -1.4429    7.0170 H   0  0  0  0  0  0  0  0  0  0  0  0
    2.4407    0.4144    7.2498 H   0  0  0  0  0  0  0  0  0  0  0  0
   -0.3911    0.4596    7.6009 H   0  0  0  0  0  0  0  0  0  0  0  0
    0.7202    1.5868    7.8659 H   0  0  0  0  0  0  0  0  0  0  0  0
    1.0080   -1.8615    8.6558 H   0  0  0  0  0  0  0  0  0  0  0  0
    2.4271   -0.9789    9.1925 H   0  0  0  0  0  0  0  0  0  0  0  0
    3.8575   -2.0593    7.5373 H   0  0  0  0  0  0  0  0  0  0  0  0
    1.2944   -3.2595    6.3641 H   0  0  0  0  0  0  0  0  0  0  0  0
    1.5163   -5.2187    6.1991 H   0  0  0  0  0  0  0  0  0  0  0  0
    5.0754   -5.1865    6.5877 H   0  0  0  0  0  0  0  0  0  0  0  0
    5.3057   -5.0191    8.8813 H   0  0  0  0  0  0  0  0  0  0  0  0
    6.2571   -6.4284    8.4616 H   0  0  0  0  0  0  0  0  0  0  0  0
    3.5361   -6.8633    9.3226 H   0  0  0  0  0  0  0  0  0  0  0  0
    4.8936   -7.7245    9.6832 H   0  0  0  0  0  0  0  0  0  0  0  0
    5.7620   -7.6350    6.2374 H   0  0  0  0  0  0  0  0  0  0  0  0
    4.8462   -6.2907    4.3758 H   0  0  0  0  0  0  0  0  0  0  0  0
    2.1013   -7.2480    5.2602 H   0  0  0  0  0  0  0  0  0  0  0  0
    2.6255   -5.1275    3.3468 H   0  0  0  0  0  0  0  0  0  0  0  0
    1.2267   -5.9271    3.6258 H   0  0  0  0  0  0  0  0  0  0  0  0
    3.8766   -8.9176    4.7309 H   0  0  0  0  0  0  0  0  0  0  0  0
    3.2276   -7.9715    7.3630 H   0  0  0  0  0  0  0  0  0  0  0  0
    1.9942   -3.9555    8.7854 H   0  0  0  0  0  0  0  0  0  0  0  0
    3.2683   -3.2311    9.5220 H   0  0  0  0  0  0  0  0  0  0  0  0
    2.9101    4.7929    0.6716 H   0  0  0  0  0  0  0  0  0  0  0  0
    5.0149    5.9064    0.1320 H   0  0  0  0  0  0  0  0  0  0  0  0
    4.1693    8.0174    2.1599 H   0  0  0  0  0  0  0  0  0  0  0  0
    5.4609    8.4403    0.2656 H   0  0  0  0  0  0  0  0  0  0  0  0
    2.6343    7.3525    0.1597 H   0  0  0  0  0  0  0  0  0  0  0  0
    2.6580    6.4737    3.0496 H   0  0  0  0  0  0  0  0  0  0  0  0
    1.6724    5.3362    2.5496 H   0  0  0  0  0  0  0  0  0  0  0  0
  1  2  1  0  0  0  0
  1 73  1  0  0  0  0
  1 74  1  0  0  0  0
  2  3  1  0  0  0  0
  2 75  1  0  0  0  0
  2 76  1  0  0  0  0
  3  4  1  0  0  0  0
  3 69  1  0  0  0  0
  3 77  1  0  0  0  0
  4  5  1  0  0  0  0
  5  6  1  0  0  0  0
  5 67  1  0  0  0  0
  5 78  1  0  0  0  0
  6  7  1  0  0  0  0
  7  8  1  0  0  0  0
  7 43  1  0  0  0  0
  7 79  1  0  0  0  0
  8  9  1  0  0  0  0
  8 41  1  0  0  0  0
  8 80  1  0  0  0  0
  9 10  1  0  0  0  0
  9 81  1  0  0  0  0
  9 82  1  0  0  0  0
 10 11  1  0  0  0  0
 10 14  1  0  0  0  0
 11 12  2  0  0  0  0
 12 13  1  0  0  0  0
 13 14  2  0  0  0  0
 13 15  1  0  0  0  0
 14 83  1  0  0  0  0
 15 16  1  0  0  0  0
 15 84  1  0  0  0  0
 15 85  1  0  0  0  0
 16 17  1  0  0  0  0
 16 86  1  0  0  0  0
 16 87  1  0  0  0  0
 17 18  2  0  0  0  0
 17 19  1  0  0  0  0
 19 20  1  0  0  0  0
 19 88  1  0  0  0  0
 20 21  1  0  0  0  0
 20 25  2  0  0  0  0
 21 22  2  0  0  0  0
 21 89  1  0  0  0  0
 22 23  1  0  0  0  0
 22 90  1  0  0  0  0
 23 24  2  0  0  0  0
 23 91  1  0  0  0  0
 24 25  1  0  0  0  0
 24 26  1  0  0  0  0
 25 92  1  0  0  0  0
 26 27  2  0  0  0  0
 26 30  1  0  0  0  0
 27 28  1  0  0  0  0
 27 93  1  0  0  0  0
 28 29  1  0  0  0  0
 29 30  2  0  0  0  0
 29 31  1  0  0  0  0
 31 32  1  0  0  0  0
 31 94  1  0  0  0  0
 32 33  2  0  0  0  0
 32 34  1  0  0  0  0
 34 35  1  0  0  0  0
 34 39  2  0  0  0  0
 35 36  2  0  0  0  0
 35 95  1  0  0  0  0
 36 37  1  0  0  0  0
 36 96  1  0  0  0  0
 37 38  2  0  0  0  0
 37 40  1  0  0  0  0
 38 39  1  0  0  0  0
 38 97  1  0  0  0  0
 39 98  1  0  0  0  0
 40 99  1  0  0  0  0
 40100  1  0  0  0  0
 40101  1  0  0  0  0
 41 42  1  0  0  0  0
 42 43  1  0  0  0  0
 42 45  1  0  0  0  0
 42102  1  0  0  0  0
 43 44  1  0  0  0  0
 43103  1  0  0  0  0
 44104  1  0  0  0  0
 45 46  1  0  0  0  0
 46 47  1  0  0  0  0
 46 53  1  0  0  0  0
 46105  1  0  0  0  0
 47 48  1  0  0  0  0
 47 49  1  0  0  0  0
 47106  1  0  0  0  0
 48107  1  0  0  0  0
 49 50  1  0  0  0  0
 49 51  1  0  0  0  0
 49108  1  0  0  0  0
 50109  1  0  0  0  0
 50110  1  0  0  0  0
 51 52  1  0  0  0  0
 51111  1  0  0  0  0
 51112  1  0  0  0  0
 52 53  1  0  0  0  0
 52 66  1  0  0  0  0
 52113  1  0  0  0  0
 53 54  1  0  0  0  0
 53114  1  0  0  0  0
 54 55  1  0  0  0  0
 55 56  1  0  0  0  0
 55 62  1  0  0  0  0
 55115  1  0  0  0  0
 56 57  1  0  0  0  0
 57 58  1  0  0  0  0
 57 60  1  0  0  0  0
 57116  1  0  0  0  0
 58 59  1  0  0  0  0
 58117  1  0  0  0  0
 58118  1  0  0  0  0
 59119  1  0  0  0  0
 59120  1  0  0  0  0
 60 61  1  0  0  0  0
 60 65  1  0  0  0  0
 60121  1  0  0  0  0
 61 62  1  0  0  0  0
 61 64  1  0  0  0  0
 61122  1  0  0  0  0
 62 63  1  0  0  0  0
 62123  1  0  0  0  0
 63124  1  0  0  0  0
 63125  1  0  0  0  0
 64126  1  0  0  0  0
 65127  1  0  0  0  0
 66128  1  0  0  0  0
 66129  1  0  0  0  0
 67 68  1  0  0  0  0
 67 72  1  0  0  0  0
 67130  1  0  0  0  0
 68 69  1  0  0  0  0
 68 71  1  0  0  0  0
 68131  1  0  0  0  0
 69 70  1  0  0  0  0
 69132  1  0  0  0  0
 70133  1  0  0  0  0
 71134  1  0  0  0  0
 72135  1  0  0  0  0
 72136  1  0  0  0  0
M  END
$$$$
Target_lig_763
 OpenBabel04172506213D

133140  0  0  1  0  0  0  0  0999 V2000
   -1.8985   -6.7837    0.5061 N   0  0  0  0  0  0  0  0  0  0  0  0
   -1.9048   -5.8719    1.6616 C   0  0  0  0  0  0  0  0  0  0  0  0
   -0.6105   -5.0690    1.9382 C   0  0  3  0  0  0  0  0  0  0  0  0
   -0.3351   -4.1439    0.8806 O   0  0  0  0  0  0  0  0  0  0  0  0
    0.2697   -4.6605   -0.2940 C   0  0  3  0  0  0  0  0  0  0  0  0
    0.6362   -3.6086   -1.2089 O   0  0  0  0  0  0  0  0  0  0  0  0
   -0.4846   -2.9215   -1.7805 C   0  0  3  0  0  0  0  0  0  0  0  0
   -0.0091   -1.9706   -2.8837 C   0  0  3  0  0  0  0  0  0  0  0  0
   -0.4437   -2.2628   -4.3516 C   0  0  0  0  0  0  0  0  0  0  0  0
   -1.8378   -2.3949   -4.7366 N   0  0  0  0  0  0  0  0  0  0  0  0
   -2.4827   -1.3344   -5.2497 N   0  0  0  0  0  0  0  0  0  0  0  0
   -3.7269   -1.6885   -5.5180 N   0  0  0  0  0  0  0  0  0  0  0  0
   -3.7930   -3.0421   -5.4393 C   0  0  0  0  0  0  0  0  0  0  0  0
   -2.5612   -3.5232   -5.0229 C   0  0  0  0  0  0  0  0  0  0  0  0
   -4.9862   -3.7262   -6.0073 C   0  0  0  0  0  0  0  0  0  0  0  0
   -4.7435   -3.9794   -7.4971 C   0  0  0  0  0  0  0  0  0  0  0  0
   -3.6935   -5.0688   -7.6327 C   0  0  0  0  0  0  0  0  0  0  0  0
   -3.5937   -5.9387   -6.7683 O   0  0  0  0  0  0  0  0  0  0  0  0
   -2.9239   -4.9852   -8.7805 N   0  0  0  0  0  0  0  0  0  0  0  0
   -1.7875   -5.7815   -9.0598 C   0  0  0  0  0  0  0  0  0  0  0  0
   -1.2277   -6.6467   -8.1111 C   0  0  0  0  0  0  0  0  0  0  0  0
   -0.1130   -7.4165   -8.4046 C   0  0  0  0  0  0  0  0  0  0  0  0
    0.4610   -7.3477   -9.6668 C   0  0  0  0  0  0  0  0  0  0  0  0
   -0.0861   -6.5096  -10.6493 C   0  0  0  0  0  0  0  0  0  0  0  0
   -1.1917   -5.6994  -10.3283 C   0  0  0  0  0  0  0  0  0  0  0  0
    0.4674   -6.5260  -11.9965 C   0  0  0  0  0  0  0  0  0  0  0  0
    0.9325   -7.6844  -12.6003 C   0  0  0  0  0  0  0  0  0  0  0  0
    1.5009   -7.3459  -14.1768 S   0  0  0  0  0  0  0  0  0  0  0  0
    1.1236   -5.7010  -13.9280 C   0  0  0  0  0  0  0  0  0  0  0  0
    0.5587   -5.3932  -12.7865 N   0  0  0  0  0  0  0  0  0  0  0  0
    1.4641   -4.9111  -14.9873 N   0  0  0  0  0  0  0  0  0  0  0  0
    1.4093   -3.5304  -14.9230 C   0  0  0  0  0  0  0  0  0  0  0  0
    1.1329   -2.8732  -13.9299 O   0  0  0  0  0  0  0  0  0  0  0  0
    1.7694   -2.8099  -16.1638 C   0  0  0  0  0  0  0  0  0  0  0  0
    1.4750   -3.3167  -17.4320 C   0  0  0  0  0  0  0  0  0  0  0  0
    1.7562   -2.5532  -18.5714 C   0  0  0  0  0  0  0  0  0  0  0  0
    2.3271   -1.2878  -18.4391 C   0  0  0  0  0  0  0  0  0  0  0  0
    2.6370   -0.7802  -17.1801 C   0  0  0  0  0  0  0  0  0  0  0  0
    2.3571   -1.5394  -16.0411 C   0  0  0  0  0  0  0  0  0  0  0  0
    2.6238   -0.3353  -19.8403 Cl  0  0  0  0  0  0  0  0  0  0  0  0
   -0.3493   -0.6485   -2.4542 O   0  0  0  0  0  0  0  0  0  0  0  0
   -1.4929   -0.7644   -1.6031 C   0  0  3  0  0  0  0  0  0  0  0  0
   -1.1592   -1.9868   -0.7667 C   0  0  3  0  0  0  0  0  0  0  0  0
   -0.2853   -1.5398    0.2916 O   0  0  0  0  0  0  0  0  0  0  0  0
   -2.6350   -0.8586   -2.4074 O   0  0  0  0  0  0  0  0  0  0  0  0
   -3.1391    0.3483   -3.0080 C   0  0  3  0  0  0  0  0  0  0  0  0
   -2.0709    1.1896   -3.7533 C   0  0  3  0  0  0  0  0  0  0  0  0
   -2.6463    1.9928   -4.8057 O   0  0  0  0  0  0  0  0  0  0  0  0
   -1.2445    2.1005   -2.8261 C   0  0  3  0  0  0  0  0  0  0  0  0
   -0.3191    2.9054   -3.6485 N   0  0  0  0  0  0  0  0  0  0  0  0
   -2.1495    2.9556   -1.9357 C   0  0  0  0  0  0  0  0  0  0  0  0
   -3.2148    2.1289   -1.1475 C   0  0  3  0  0  0  0  0  0  0  0  0
   -4.0302    1.1717   -2.0652 C   0  0  3  0  0  0  0  0  0  0  0  0
   -5.0990    0.3615   -1.5085 O   0  0  0  0  0  0  0  0  0  0  0  0
   -4.8732   -0.4810   -0.3793 C   0  0  3  0  0  0  0  0  0  0  0  0
   -4.1536   -1.6840   -0.6489 O   0  0  0  0  0  0  0  0  0  0  0  0
   -4.8492   -2.6698   -1.4460 C   0  0  3  0  0  0  0  0  0  0  0  0
   -3.8448   -3.7503   -1.8606 C   0  0  0  0  0  0  0  0  0  0  0  0
   -4.3929   -4.9310   -2.5189 N   0  0  0  0  0  0  0  0  0  0  0  0
   -5.9236   -3.2467   -0.5495 C   0  0  3  0  0  0  0  0  0  0  0  0
   -6.9173   -2.1076   -0.2371 C   0  0  3  0  0  0  0  0  0  0  0  0
   -6.2265   -0.8184    0.3425 C   0  0  3  0  0  0  0  0  0  0  0  0
   -7.1216    0.3882    0.3771 N   0  0  0  0  0  0  0  0  0  0  0  0
   -7.9248   -2.6216    0.6602 O   0  0  0  0  0  0  0  0  0  0  0  0
   -5.3195   -3.7478    0.6653 O   0  0  0  0  0  0  0  0  0  0  0  0
   -4.0892    3.0639   -0.4241 N   0  0  0  0  0  0  0  0  0  0  0  0
    1.5841   -5.4054    0.0136 C   0  0  3  0  0  0  0  0  0  0  0  0
    1.4207   -6.3762    1.1735 C   0  0  3  0  0  0  0  0  0  0  0  0
    0.6535   -5.8140    2.3796 C   0  0  3  0  0  0  0  0  0  0  0  0
    0.4066   -6.7936    3.4015 O   0  0  0  0  0  0  0  0  0  0  0  0
    2.7828   -6.6655    1.5542 O   0  0  0  0  0  0  0  0  0  0  0  0
    2.7980   -4.5747    0.3508 N   0  0  0  0  0  0  0  0  0  0  0  0
   -2.8589   -6.7841    0.1428 H   0  0  0  0  0  0  0  0  0  0  0  0
   -1.7877   -7.7489    0.8244 H   0  0  0  0  0  0  0  0  0  0  0  0
   -2.1955   -6.4289    2.5584 H   0  0  0  0  0  0  0  0  0  0  0  0
   -2.7000   -5.1373    1.4756 H   0  0  0  0  0  0  0  0  0  0  0  0
   -0.8814   -4.4281    2.7895 H   0  0  0  0  0  0  0  0  0  0  0  0
   -0.4158   -5.3276   -0.8213 H   0  0  0  0  0  0  0  0  0  0  0  0
   -1.1540   -3.6659   -2.2110 H   0  0  0  0  0  0  0  0  0  0  0  0
    1.0901   -1.9710   -2.9085 H   0  0  0  0  0  0  0  0  0  0  0  0
    0.0453   -3.1701   -4.6755 H   0  0  0  0  0  0  0  0  0  0  0  0
   -0.0610   -1.4431   -4.9715 H   0  0  0  0  0  0  0  0  0  0  0  0
   -2.1536   -4.5196   -4.9518 H   0  0  0  0  0  0  0  0  0  0  0  0
   -5.8675   -3.0816   -5.8942 H   0  0  0  0  0  0  0  0  0  0  0  0
   -5.2140   -4.6502   -5.4626 H   0  0  0  0  0  0  0  0  0  0  0  0
   -4.4034   -3.0596   -7.9904 H   0  0  0  0  0  0  0  0  0  0  0  0
   -5.6546   -4.3238   -7.9922 H   0  0  0  0  0  0  0  0  0  0  0  0
   -3.2019   -4.3171   -9.4903 H   0  0  0  0  0  0  0  0  0  0  0  0
   -1.6348   -6.7509   -7.1111 H   0  0  0  0  0  0  0  0  0  0  0  0
    0.3044   -8.0783   -7.6471 H   0  0  0  0  0  0  0  0  0  0  0  0
    1.3417   -7.9517   -9.8700 H   0  0  0  0  0  0  0  0  0  0  0  0
   -1.5958   -5.0346  -11.0893 H   0  0  0  0  0  0  0  0  0  0  0  0
    0.9579   -8.6879  -12.2017 H   0  0  0  0  0  0  0  0  0  0  0  0
    1.8733   -5.3724  -15.7813 H   0  0  0  0  0  0  0  0  0  0  0  0
    0.9841   -4.2772  -17.5577 H   0  0  0  0  0  0  0  0  0  0  0  0
    1.5047   -2.9396  -19.5561 H   0  0  0  0  0  0  0  0  0  0  0  0
    3.0760    0.2084  -17.0737 H   0  0  0  0  0  0  0  0  0  0  0  0
    2.5825   -1.1303  -15.0568 H   0  0  0  0  0  0  0  0  0  0  0  0
   -1.5562    0.0862   -0.9298 H   0  0  0  0  0  0  0  0  0  0  0  0
   -2.0089   -2.4652   -0.2732 H   0  0  0  0  0  0  0  0  0  0  0  0
    0.4353   -1.0335   -0.1208 H   0  0  0  0  0  0  0  0  0  0  0  0
   -3.8621   -0.0044   -3.7471 H   0  0  0  0  0  0  0  0  0  0  0  0
   -1.3656    0.5308   -4.2654 H   0  0  0  0  0  0  0  0  0  0  0  0
   -3.2425    2.6562   -4.4283 H   0  0  0  0  0  0  0  0  0  0  0  0
   -0.5994    1.5418   -2.1514 H   0  0  0  0  0  0  0  0  0  0  0  0
   -0.8382    3.1724   -4.4931 H   0  0  0  0  0  0  0  0  0  0  0  0
    0.3836    2.2595   -4.0345 H   0  0  0  0  0  0  0  0  0  0  0  0
   -2.6386    3.7199   -2.5517 H   0  0  0  0  0  0  0  0  0  0  0  0
   -1.5136    3.4948   -1.2198 H   0  0  0  0  0  0  0  0  0  0  0  0
   -2.7186    1.5517   -0.3685 H   0  0  0  0  0  0  0  0  0  0  0  0
   -4.5905    1.8496   -2.7308 H   0  0  0  0  0  0  0  0  0  0  0  0
   -4.2696    0.0859    0.3397 H   0  0  0  0  0  0  0  0  0  0  0  0
   -5.2667   -2.2035   -2.3476 H   0  0  0  0  0  0  0  0  0  0  0  0
   -3.2462   -4.0858   -1.0071 H   0  0  0  0  0  0  0  0  0  0  0  0
   -3.1434   -3.2776   -2.5369 H   0  0  0  0  0  0  0  0  0  0  0  0
   -4.5450   -5.6484   -1.8136 H   0  0  0  0  0  0  0  0  0  0  0  0
   -3.6801   -5.3226   -3.1431 H   0  0  0  0  0  0  0  0  0  0  0  0
   -6.4510   -4.0883   -1.0110 H   0  0  0  0  0  0  0  0  0  0  0  0
   -7.4315   -1.8425   -1.1693 H   0  0  0  0  0  0  0  0  0  0  0  0
   -5.9865   -1.0630    1.3850 H   0  0  0  0  0  0  0  0  0  0  0  0
   -7.1744    0.7282   -0.5880 H   0  0  0  0  0  0  0  0  0  0  0  0
   -6.6315    1.1319    0.8732 H   0  0  0  0  0  0  0  0  0  0  0  0
   -7.5895   -3.4538    1.0553 H   0  0  0  0  0  0  0  0  0  0  0  0
   -4.5767   -3.1427    0.8627 H   0  0  0  0  0  0  0  0  0  0  0  0
   -4.3981    3.8050   -1.0554 H   0  0  0  0  0  0  0  0  0  0  0  0
   -3.5448    3.5357    0.2982 H   0  0  0  0  0  0  0  0  0  0  0  0
    1.8904   -5.9513   -0.8846 H   0  0  0  0  0  0  0  0  0  0  0  0
    0.9664   -7.3108    0.8272 H   0  0  0  0  0  0  0  0  0  0  0  0
    1.3123   -5.0722    2.8548 H   0  0  0  0  0  0  0  0  0  0  0  0
    0.4084   -7.6403    2.9271 H   0  0  0  0  0  0  0  0  0  0  0  0
    3.3091   -5.9248    1.1638 H   0  0  0  0  0  0  0  0  0  0  0  0
    2.5142   -3.8757    1.0462 H   0  0  0  0  0  0  0  0  0  0  0  0
    2.9895   -3.9918   -0.4686 H   0  0  0  0  0  0  0  0  0  0  0  0
  1  2  1  0  0  0  0
  1 73  1  0  0  0  0
  1 74  1  0  0  0  0
  2  3  1  0  0  0  0
  2 75  1  0  0  0  0
  2 76  1  0  0  0  0
  3  4  1  0  0  0  0
  3 69  1  0  0  0  0
  3 77  1  0  0  0  0
  4  5  1  0  0  0  0
  5  6  1  0  0  0  0
  5 67  1  0  0  0  0
  5 78  1  0  0  0  0
  6  7  1  0  0  0  0
  7  8  1  0  0  0  0
  7 43  1  0  0  0  0
  7 79  1  0  0  0  0
  8  9  1  0  0  0  0
  8 41  1  0  0  0  0
  8 80  1  0  0  0  0
  9 10  1  0  0  0  0
  9 81  1  0  0  0  0
  9 82  1  0  0  0  0
 10 11  1  0  0  0  0
 10 14  1  0  0  0  0
 11 12  2  0  0  0  0
 12 13  1  0  0  0  0
 13 14  2  0  0  0  0
 13 15  1  0  0  0  0
 14 83  1  0  0  0  0
 15 16  1  0  0  0  0
 15 84  1  0  0  0  0
 15 85  1  0  0  0  0
 16 17  1  0  0  0  0
 16 86  1  0  0  0  0
 16 87  1  0  0  0  0
 17 18  2  0  0  0  0
 17 19  1  0  0  0  0
 19 20  1  0  0  0  0
 19 88  1  0  0  0  0
 20 21  1  0  0  0  0
 20 25  2  0  0  0  0
 21 22  2  0  0  0  0
 21 89  1  0  0  0  0
 22 23  1  0  0  0  0
 22 90  1  0  0  0  0
 23 24  2  0  0  0  0
 23 91  1  0  0  0  0
 24 25  1  0  0  0  0
 24 26  1  0  0  0  0
 25 92  1  0  0  0  0
 26 27  2  0  0  0  0
 26 30  1  0  0  0  0
 27 28  1  0  0  0  0
 27 93  1  0  0  0  0
 28 29  1  0  0  0  0
 29 30  2  0  0  0  0
 29 31  1  0  0  0  0
 31 32  1  0  0  0  0
 31 94  1  0  0  0  0
 32 33  2  0  0  0  0
 32 34  1  0  0  0  0
 34 35  1  0  0  0  0
 34 39  2  0  0  0  0
 35 36  2  0  0  0  0
 35 95  1  0  0  0  0
 36 37  1  0  0  0  0
 36 96  1  0  0  0  0
 37 38  2  0  0  0  0
 37 40  1  0  0  0  0
 38 39  1  0  0  0  0
 38 97  1  0  0  0  0
 39 98  1  0  0  0  0
 41 42  1  0  0  0  0
 42 43  1  0  0  0  0
 42 45  1  0  0  0  0
 42 99  1  0  0  0  0
 43 44  1  0  0  0  0
 43100  1  0  0  0  0
 44101  1  0  0  0  0
 45 46  1  0  0  0  0
 46 47  1  0  0  0  0
 46 53  1  0  0  0  0
 46102  1  0  0  0  0
 47 48  1  0  0  0  0
 47 49  1  0  0  0  0
 47103  1  0  0  0  0
 48104  1  0  0  0  0
 49 50  1  0  0  0  0
 49 51  1  0  0  0  0
 49105  1  0  0  0  0
 50106  1  0  0  0  0
 50107  1  0  0  0  0
 51 52  1  0  0  0  0
 51108  1  0  0  0  0
 51109  1  0  0  0  0
 52 53  1  0  0  0  0
 52 66  1  0  0  0  0
 52110  1  0  0  0  0
 53 54  1  0  0  0  0
 53111  1  0  0  0  0
 54 55  1  0  0  0  0
 55 56  1  0  0  0  0
 55 62  1  0  0  0  0
 55112  1  0  0  0  0
 56 57  1  0  0  0  0
 57 58  1  0  0  0  0
 57 60  1  0  0  0  0
 57113  1  0  0  0  0
 58 59  1  0  0  0  0
 58114  1  0  0  0  0
 58115  1  0  0  0  0
 59116  1  0  0  0  0
 59117  1  0  0  0  0
 60 61  1  0  0  0  0
 60 65  1  0  0  0  0
 60118  1  0  0  0  0
 61 62  1  0  0  0  0
 61 64  1  0  0  0  0
 61119  1  0  0  0  0
 62 63  1  0  0  0  0
 62120  1  0  0  0  0
 63121  1  0  0  0  0
 63122  1  0  0  0  0
 64123  1  0  0  0  0
 65124  1  0  0  0  0
 66125  1  0  0  0  0
 66126  1  0  0  0  0
 67 68  1  0  0  0  0
 67 72  1  0  0  0  0
 67127  1  0  0  0  0
 68 69  1  0  0  0  0
 68 71  1  0  0  0  0
 68128  1  0  0  0  0
 69 70  1  0  0  0  0
 69129  1  0  0  0  0
 70130  1  0  0  0  0
 71131  1  0  0  0  0
 72132  1  0  0  0  0
 72133  1  0  0  0  0
M  END
$$$$
Target_lig_764
 OpenBabel04172506213D

133140  0  0  1  0  0  0  0  0999 V2000
   -1.2462   -6.8344    2.2239 N   0  0  0  0  0  0  0  0  0  0  0  0
   -1.3891   -5.5958    3.0019 C   0  0  0  0  0  0  0  0  0  0  0  0
   -0.1785   -4.6326    3.0114 C   0  0  3  0  0  0  0  0  0  0  0  0
    0.0194   -3.9436    1.7800 O   0  0  0  0  0  0  0  0  0  0  0  0
    0.6670   -4.6440    0.7285 C   0  0  3  0  0  0  0  0  0  0  0  0
    1.0292   -3.6824   -0.2980 O   0  0  0  0  0  0  0  0  0  0  0  0
   -0.0958   -3.2097   -1.0446 C   0  0  3  0  0  0  0  0  0  0  0  0
    0.3893   -2.4341   -2.2904 C   0  0  3  0  0  0  0  0  0  0  0  0
    0.4525   -3.0671   -3.7012 C   0  0  0  0  0  0  0  0  0  0  0  0
    0.8997   -4.4254   -3.8984 N   0  0  0  0  0  0  0  0  0  0  0  0
    0.5833   -5.4359   -3.0685 N   0  0  0  0  0  0  0  0  0  0  0  0
    0.8641   -6.5811   -3.6772 N   0  0  0  0  0  0  0  0  0  0  0  0
    1.3586   -6.2918   -4.9178 C   0  0  0  0  0  0  0  0  0  0  0  0
    1.3682   -4.9244   -5.0809 C   0  0  0  0  0  0  0  0  0  0  0  0
    1.7772   -7.3618   -5.8647 C   0  0  0  0  0  0  0  0  0  0  0  0
    0.8875   -7.4553   -7.1073 C   0  0  0  0  0  0  0  0  0  0  0  0
    0.9629   -6.1877   -7.9379 C   0  0  0  0  0  0  0  0  0  0  0  0
    2.0381   -5.6114   -8.0811 O   0  0  0  0  0  0  0  0  0  0  0  0
   -0.2560   -5.7976   -8.4759 N   0  0  0  0  0  0  0  0  0  0  0  0
   -0.5017   -4.6216   -9.2274 C   0  0  0  0  0  0  0  0  0  0  0  0
    0.5215   -3.7430   -9.5988 C   0  0  0  0  0  0  0  0  0  0  0  0
    0.2483   -2.5822  -10.3135 C   0  0  0  0  0  0  0  0  0  0  0  0
   -1.0569   -2.2971  -10.6836 C   0  0  0  0  0  0  0  0  0  0  0  0
   -2.1056   -3.1804  -10.3726 C   0  0  0  0  0  0  0  0  0  0  0  0
   -1.8229   -4.3331   -9.6205 C   0  0  0  0  0  0  0  0  0  0  0  0
   -3.4414   -2.9083  -10.9016 C   0  0  0  0  0  0  0  0  0  0  0  0
   -3.6006   -2.2877  -12.1264 C   0  0  0  0  0  0  0  0  0  0  0  0
   -5.2433   -2.0066  -12.4310 S   0  0  0  0  0  0  0  0  0  0  0  0
   -5.6533   -2.8690  -11.0099 C   0  0  0  0  0  0  0  0  0  0  0  0
   -4.6359   -3.2453  -10.2610 N   0  0  0  0  0  0  0  0  0  0  0  0
   -6.9778   -3.0580  -10.6673 N   0  0  0  0  0  0  0  0  0  0  0  0
   -8.0009   -3.0008  -11.5724 C   0  0  0  0  0  0  0  0  0  0  0  0
   -7.9179   -2.8965  -12.7934 O   0  0  0  0  0  0  0  0  0  0  0  0
   -9.4014   -3.1521  -11.0846 C   0  0  0  0  0  0  0  0  0  0  0  0
   -9.8021   -2.7889   -9.7839 C   0  0  0  0  0  0  0  0  0  0  0  0
  -11.1561   -2.8626   -9.4450 C   0  0  0  0  0  0  0  0  0  0  0  0
  -12.0940   -3.2898  -10.3833 C   0  0  0  0  0  0  0  0  0  0  0  0
  -11.7105   -3.6507  -11.6644 C   0  0  0  0  0  0  0  0  0  0  0  0
  -10.3636   -3.5827  -12.0171 C   0  0  0  0  0  0  0  0  0  0  0  0
  -13.3884   -3.3385  -10.0498 F   0  0  0  0  0  0  0  0  0  0  0  0
   -0.4302   -1.2330   -2.4125 O   0  0  0  0  0  0  0  0  0  0  0  0
   -1.5062   -1.2807   -1.4593 C   0  0  3  0  0  0  0  0  0  0  0  0
   -0.9840   -2.1829   -0.3211 C   0  0  3  0  0  0  0  0  0  0  0  0
   -0.2324   -1.3564    0.5981 O   0  0  0  0  0  0  0  0  0  0  0  0
   -2.7362   -1.7061   -2.0795 O   0  0  0  0  0  0  0  0  0  0  0  0
   -3.2035   -0.8821   -3.1602 C   0  0  3  0  0  0  0  0  0  0  0  0
   -3.8194    0.4377   -2.6534 C   0  0  3  0  0  0  0  0  0  0  0  0
   -3.5593    1.5006   -3.5861 O   0  0  0  0  0  0  0  0  0  0  0  0
   -5.3332    0.3587   -2.3669 C   0  0  3  0  0  0  0  0  0  0  0  0
   -5.8197    1.6851   -1.9514 N   0  0  0  0  0  0  0  0  0  0  0  0
   -6.1377   -0.0645   -3.5984 C   0  0  0  0  0  0  0  0  0  0  0  0
   -5.6791   -1.4215   -4.1105 C   0  0  3  0  0  0  0  0  0  0  0  0
   -4.1466   -1.6468   -4.1662 C   0  0  3  0  0  0  0  0  0  0  0  0
   -3.7464   -2.9949   -4.4562 O   0  0  0  0  0  0  0  0  0  0  0  0
   -4.1753   -4.1965   -3.7733 C   0  0  3  0  0  0  0  0  0  0  0  0
   -5.5380   -4.4357   -3.5403 O   0  0  0  0  0  0  0  0  0  0  0  0
   -6.0085   -4.1172   -2.2295 C   0  0  3  0  0  0  0  0  0  0  0  0
   -7.4986   -4.4132   -2.2947 C   0  0  0  0  0  0  0  0  0  0  0  0
   -8.2025   -3.8107   -1.1758 N   0  0  0  0  0  0  0  0  0  0  0  0
   -5.2431   -4.7349   -1.0626 C   0  0  3  0  0  0  0  0  0  0  0  0
   -3.8159   -4.2321   -1.2081 C   0  0  3  0  0  0  0  0  0  0  0  0
   -3.2974   -4.6555   -2.5940 C   0  0  3  0  0  0  0  0  0  0  0  0
   -1.9811   -4.2009   -2.9071 N   0  0  0  0  0  0  0  0  0  0  0  0
   -2.9996   -4.7219   -0.1453 O   0  0  0  0  0  0  0  0  0  0  0  0
   -5.2688   -6.1572   -1.0099 O   0  0  0  0  0  0  0  0  0  0  0  0
   -6.3396   -1.7975   -5.3698 N   0  0  0  0  0  0  0  0  0  0  0  0
    2.0147   -5.2578    1.1892 C   0  0  3  0  0  0  0  0  0  0  0  0
    1.8851   -6.0173    2.5139 C   0  0  3  0  0  0  0  0  0  0  0  0
    1.1294   -5.1970    3.5693 C   0  0  3  0  0  0  0  0  0  0  0  0
    0.8790   -5.9284    4.7778 O   0  0  0  0  0  0  0  0  0  0  0  0
    3.2235   -6.2888    2.9867 O   0  0  0  0  0  0  0  0  0  0  0  0
    3.0742   -4.1995    1.3161 N   0  0  0  0  0  0  0  0  0  0  0  0
   -2.1850   -7.1598    1.9924 H   0  0  0  0  0  0  0  0  0  0  0  0
   -0.9045   -7.5721    2.8411 H   0  0  0  0  0  0  0  0  0  0  0  0
   -1.6353   -5.8779    4.0334 H   0  0  0  0  0  0  0  0  0  0  0  0
   -2.2572   -5.0522    2.6119 H   0  0  0  0  0  0  0  0  0  0  0  0
   -0.4846   -3.8429    3.7107 H   0  0  0  0  0  0  0  0  0  0  0  0
    0.0243   -5.4277    0.3095 H   0  0  0  0  0  0  0  0  0  0  0  0
   -0.6674   -4.0948   -1.2747 H   0  0  0  0  0  0  0  0  0  0  0  0
    1.4065   -2.0825   -2.0891 H   0  0  0  0  0  0  0  0  0  0  0  0
    1.1097   -2.4341   -4.3132 H   0  0  0  0  0  0  0  0  0  0  0  0
   -0.4882   -2.9589   -4.2576 H   0  0  0  0  0  0  0  0  0  0  0  0
    1.6262   -4.2873   -5.9143 H   0  0  0  0  0  0  0  0  0  0  0  0
    1.7574   -8.3300   -5.3483 H   0  0  0  0  0  0  0  0  0  0  0  0
    2.8226   -7.1872   -6.1484 H   0  0  0  0  0  0  0  0  0  0  0  0
   -0.1459   -7.6769   -6.8226 H   0  0  0  0  0  0  0  0  0  0  0  0
    1.2442   -8.2711   -7.7477 H   0  0  0  0  0  0  0  0  0  0  0  0
   -1.0618   -6.3802   -8.2839 H   0  0  0  0  0  0  0  0  0  0  0  0
    1.5619   -3.9298   -9.3597 H   0  0  0  0  0  0  0  0  0  0  0  0
    1.0579   -1.9131  -10.5918 H   0  0  0  0  0  0  0  0  0  0  0  0
   -1.2387   -1.3767  -11.2335 H   0  0  0  0  0  0  0  0  0  0  0  0
   -2.6380   -5.0064   -9.3660 H   0  0  0  0  0  0  0  0  0  0  0  0
   -2.8506   -1.9583  -12.8313 H   0  0  0  0  0  0  0  0  0  0  0  0
   -7.1249   -3.4607   -9.7492 H   0  0  0  0  0  0  0  0  0  0  0  0
   -9.0928   -2.4090   -9.0567 H   0  0  0  0  0  0  0  0  0  0  0  0
  -11.4975   -2.5696   -8.4571 H   0  0  0  0  0  0  0  0  0  0  0  0
  -12.4495   -3.9668  -12.3941 H   0  0  0  0  0  0  0  0  0  0  0  0
  -10.0669   -3.8392  -13.0302 H   0  0  0  0  0  0  0  0  0  0  0  0
   -1.6531   -0.2760   -1.0556 H   0  0  0  0  0  0  0  0  0  0  0  0
   -1.7843   -2.6476    0.2590 H   0  0  0  0  0  0  0  0  0  0  0  0
    0.5444   -1.0000    0.1354 H   0  0  0  0  0  0  0  0  0  0  0  0
   -2.3135   -0.6355   -3.7531 H   0  0  0  0  0  0  0  0  0  0  0  0
   -3.3324    0.7433   -1.7225 H   0  0  0  0  0  0  0  0  0  0  0  0
   -4.0376    1.3259   -4.4133 H   0  0  0  0  0  0  0  0  0  0  0  0
   -5.5162   -0.3525   -1.5509 H   0  0  0  0  0  0  0  0  0  0  0  0
   -5.4348    2.3744   -2.6067 H   0  0  0  0  0  0  0  0  0  0  0  0
   -5.3746    1.9325   -1.0652 H   0  0  0  0  0  0  0  0  0  0  0  0
   -6.0883    0.6877   -4.3930 H   0  0  0  0  0  0  0  0  0  0  0  0
   -7.1999   -0.1425   -3.3183 H   0  0  0  0  0  0  0  0  0  0  0  0
   -6.1190   -2.1053   -3.4260 H   0  0  0  0  0  0  0  0  0  0  0  0
   -3.8874   -1.1272   -5.1039 H   0  0  0  0  0  0  0  0  0  0  0  0
   -3.9243   -4.9313   -4.5529 H   0  0  0  0  0  0  0  0  0  0  0  0
   -5.8797   -3.0535   -2.0333 H   0  0  0  0  0  0  0  0  0  0  0  0
   -7.6613   -5.4940   -2.3534 H   0  0  0  0  0  0  0  0  0  0  0  0
   -7.8886   -3.9946   -3.2321 H   0  0  0  0  0  0  0  0  0  0  0  0
   -7.8876   -4.2439   -0.3088 H   0  0  0  0  0  0  0  0  0  0  0  0
   -9.1927   -4.0305   -1.2597 H   0  0  0  0  0  0  0  0  0  0  0  0
   -5.6382   -4.3765   -0.1055 H   0  0  0  0  0  0  0  0  0  0  0  0
   -3.8597   -3.1533   -1.0725 H   0  0  0  0  0  0  0  0  0  0  0  0
   -3.2374   -5.7485   -2.5798 H   0  0  0  0  0  0  0  0  0  0  0  0
   -2.1031   -3.2707   -3.3214 H   0  0  0  0  0  0  0  0  0  0  0  0
   -1.5516   -4.8107   -3.5998 H   0  0  0  0  0  0  0  0  0  0  0  0
   -3.2636   -5.6403    0.0248 H   0  0  0  0  0  0  0  0  0  0  0  0
   -4.9983   -6.5110   -1.8739 H   0  0  0  0  0  0  0  0  0  0  0  0
   -6.3967   -1.0131   -6.0122 H   0  0  0  0  0  0  0  0  0  0  0  0
   -7.2977   -2.0931   -5.1729 H   0  0  0  0  0  0  0  0  0  0  0  0
    2.3934   -5.9393    0.4165 H   0  0  0  0  0  0  0  0  0  0  0  0
    1.4173   -6.9937    2.3620 H   0  0  0  0  0  0  0  0  0  0  0  0
    1.7685   -4.3529    3.8580 H   0  0  0  0  0  0  0  0  0  0  0  0
    1.0605   -6.8664    4.5971 H   0  0  0  0  0  0  0  0  0  0  0  0
    3.7490   -5.5716    2.5620 H   0  0  0  0  0  0  0  0  0  0  0  0
    2.6389   -3.4194    1.8231 H   0  0  0  0  0  0  0  0  0  0  0  0
    3.1523   -3.8014    0.3709 H   0  0  0  0  0  0  0  0  0  0  0  0
  1  2  1  0  0  0  0
  1 73  1  0  0  0  0
  1 74  1  0  0  0  0
  2  3  1  0  0  0  0
  2 75  1  0  0  0  0
  2 76  1  0  0  0  0
  3  4  1  0  0  0  0
  3 69  1  0  0  0  0
  3 77  1  0  0  0  0
  4  5  1  0  0  0  0
  5  6  1  0  0  0  0
  5 67  1  0  0  0  0
  5 78  1  0  0  0  0
  6  7  1  0  0  0  0
  7  8  1  0  0  0  0
  7 43  1  0  0  0  0
  7 79  1  0  0  0  0
  8  9  1  0  0  0  0
  8 41  1  0  0  0  0
  8 80  1  0  0  0  0
  9 10  1  0  0  0  0
  9 81  1  0  0  0  0
  9 82  1  0  0  0  0
 10 11  1  0  0  0  0
 10 14  1  0  0  0  0
 11 12  2  0  0  0  0
 12 13  1  0  0  0  0
 13 14  2  0  0  0  0
 13 15  1  0  0  0  0
 14 83  1  0  0  0  0
 15 16  1  0  0  0  0
 15 84  1  0  0  0  0
 15 85  1  0  0  0  0
 16 17  1  0  0  0  0
 16 86  1  0  0  0  0
 16 87  1  0  0  0  0
 17 18  2  0  0  0  0
 17 19  1  0  0  0  0
 19 20  1  0  0  0  0
 19 88  1  0  0  0  0
 20 21  1  0  0  0  0
 20 25  2  0  0  0  0
 21 22  2  0  0  0  0
 21 89  1  0  0  0  0
 22 23  1  0  0  0  0
 22 90  1  0  0  0  0
 23 24  2  0  0  0  0
 23 91  1  0  0  0  0
 24 25  1  0  0  0  0
 24 26  1  0  0  0  0
 25 92  1  0  0  0  0
 26 27  2  0  0  0  0
 26 30  1  0  0  0  0
 27 28  1  0  0  0  0
 27 93  1  0  0  0  0
 28 29  1  0  0  0  0
 29 30  2  0  0  0  0
 29 31  1  0  0  0  0
 31 32  1  0  0  0  0
 31 94  1  0  0  0  0
 32 33  2  0  0  0  0
 32 34  1  0  0  0  0
 34 35  1  0  0  0  0
 34 39  2  0  0  0  0
 35 36  2  0  0  0  0
 35 95  1  0  0  0  0
 36 37  1  0  0  0  0
 36 96  1  0  0  0  0
 37 38  2  0  0  0  0
 37 40  1  0  0  0  0
 38 39  1  0  0  0  0
 38 97  1  0  0  0  0
 39 98  1  0  0  0  0
 41 42  1  0  0  0  0
 42 43  1  0  0  0  0
 42 45  1  0  0  0  0
 42 99  1  0  0  0  0
 43 44  1  0  0  0  0
 43100  1  0  0  0  0
 44101  1  0  0  0  0
 45 46  1  0  0  0  0
 46 47  1  0  0  0  0
 46 53  1  0  0  0  0
 46102  1  0  0  0  0
 47 48  1  0  0  0  0
 47 49  1  0  0  0  0
 47103  1  0  0  0  0
 48104  1  0  0  0  0
 49 50  1  0  0  0  0
 49 51  1  0  0  0  0
 49105  1  0  0  0  0
 50106  1  0  0  0  0
 50107  1  0  0  0  0
 51 52  1  0  0  0  0
 51108  1  0  0  0  0
 51109  1  0  0  0  0
 52 53  1  0  0  0  0
 52 66  1  0  0  0  0
 52110  1  0  0  0  0
 53 54  1  0  0  0  0
 53111  1  0  0  0  0
 54 55  1  0  0  0  0
 55 56  1  0  0  0  0
 55 62  1  0  0  0  0
 55112  1  0  0  0  0
 56 57  1  0  0  0  0
 57 58  1  0  0  0  0
 57 60  1  0  0  0  0
 57113  1  0  0  0  0
 58 59  1  0  0  0  0
 58114  1  0  0  0  0
 58115  1  0  0  0  0
 59116  1  0  0  0  0
 59117  1  0  0  0  0
 60 61  1  0  0  0  0
 60 65  1  0  0  0  0
 60118  1  0  0  0  0
 61 62  1  0  0  0  0
 61 64  1  0  0  0  0
 61119  1  0  0  0  0
 62 63  1  0  0  0  0
 62120  1  0  0  0  0
 63121  1  0  0  0  0
 63122  1  0  0  0  0
 64123  1  0  0  0  0
 65124  1  0  0  0  0
 66125  1  0  0  0  0
 66126  1  0  0  0  0
 67 68  1  0  0  0  0
 67 72  1  0  0  0  0
 67127  1  0  0  0  0
 68 69  1  0  0  0  0
 68 71  1  0  0  0  0
 68128  1  0  0  0  0
 69 70  1  0  0  0  0
 69129  1  0  0  0  0
 70130  1  0  0  0  0
 71131  1  0  0  0  0
 72132  1  0  0  0  0
 72133  1  0  0  0  0
M  END
$$$$
Target_lig_765
 OpenBabel04172506213D

135142  0  0  1  0  0  0  0  0999 V2000
    1.2372    0.2305    0.5173 N   0  0  0  0  0  0  0  0  0  0  0  0
    2.4292    0.3953   -0.3297 C   0  0  0  0  0  0  0  0  0  0  0  0
    3.0495    1.8152   -0.3644 C   0  0  3  0  0  0  0  0  0  0  0  0
    3.6328    2.1654    0.8862 O   0  0  0  0  0  0  0  0  0  0  0  0
    2.7348    2.5980    1.8987 C   0  0  3  0  0  0  0  0  0  0  0  0
    3.3544    2.6893    3.1765 O   0  0  0  0  0  0  0  0  0  0  0  0
    3.9812    1.5131    3.6744 C   0  0  3  0  0  0  0  0  0  0  0  0
    5.0575    0.9652    2.7375 C   0  0  3  0  0  0  0  0  0  0  0  0
    6.3784    0.9650    3.4571 C   0  0  0  0  0  0  0  0  0  0  0  0
    6.7840    2.3239    3.7258 N   0  0  0  0  0  0  0  0  0  0  0  0
    7.5854    2.6123    4.7503 N   0  0  0  0  0  0  0  0  0  0  0  0
    8.3673    3.5937    4.3479 N   0  0  0  0  0  0  0  0  0  0  0  0
    7.7752    4.1262    3.2439 C   0  0  0  0  0  0  0  0  0  0  0  0
    6.6703    3.3867    2.8976 C   0  0  0  0  0  0  0  0  0  0  0  0
    8.2245    5.3646    2.6220 C   0  0  0  0  0  0  0  0  0  0  0  0
    6.9933    6.2535    2.4238 C   0  0  0  0  0  0  0  0  0  0  0  0
    7.4069    7.5268    1.7701 C   0  0  0  0  0  0  0  0  0  0  0  0
    8.5877    7.7958    1.5935 O   0  0  0  0  0  0  0  0  0  0  0  0
    6.3100    8.2969    1.4469 N   0  0  0  0  0  0  0  0  0  0  0  0
    6.4550    9.5684    0.8550 C   0  0  0  0  0  0  0  0  0  0  0  0
    7.5986    9.9095    0.1160 C   0  0  0  0  0  0  0  0  0  0  0  0
    7.7310   11.1868   -0.4219 C   0  0  0  0  0  0  0  0  0  0  0  0
    6.7155   12.1180   -0.2427 C   0  0  0  0  0  0  0  0  0  0  0  0
    5.5491   11.7761    0.4607 C   0  0  0  0  0  0  0  0  0  0  0  0
    5.4336   10.4976    1.0230 C   0  0  0  0  0  0  0  0  0  0  0  0
    4.4827   12.7583    0.5781 C   0  0  0  0  0  0  0  0  0  0  0  0
    3.1501   12.4424    0.7830 C   0  0  0  0  0  0  0  0  0  0  0  0
    2.2150   13.8789    0.8444 S   0  0  0  0  0  0  0  0  0  0  0  0
    3.6209   14.7795    0.5061 C   0  0  0  0  0  0  0  0  0  0  0  0
    4.7377   14.1051    0.4191 N   0  0  0  0  0  0  0  0  0  0  0  0
    3.4085   16.1194    0.3562 N   0  0  0  0  0  0  0  0  0  0  0  0
    4.3825   16.9516   -0.1421 C   0  0  0  0  0  0  0  0  0  0  0  0
    5.4803   16.6025   -0.5445 O   0  0  0  0  0  0  0  0  0  0  0  0
    4.0195   18.3898   -0.2464 C   0  0  0  0  0  0  0  0  0  0  0  0
    3.1340   19.0136    0.6383 C   0  0  0  0  0  0  0  0  0  0  0  0
    2.9142   20.3938    0.5306 C   0  0  0  0  0  0  0  0  0  0  0  0
    3.5360   21.1515   -0.4621 C   0  0  0  0  0  0  0  0  0  0  0  0
    4.4448   20.5302   -1.3153 C   0  0  0  0  0  0  0  0  0  0  0  0
    4.6741   19.1585   -1.2196 C   0  0  0  0  0  0  0  0  0  0  0  0
    3.4366   22.5430   -0.4210 N   0  0  0  0  0  0  0  0  0  0  0  0
    4.6326   -0.3190    2.2863 O   0  0  0  0  0  0  0  0  0  0  0  0
    3.8737   -0.8850    3.3382 C   0  0  3  0  0  0  0  0  0  0  0  0
    3.1490    0.2866    4.0540 C   0  0  3  0  0  0  0  0  0  0  0  0
    1.7550    0.4285    3.7396 O   0  0  0  0  0  0  0  0  0  0  0  0
    4.7681   -1.6156    4.1758 O   0  0  0  0  0  0  0  0  0  0  0  0
    5.5482   -2.6252    3.4796 C   0  0  3  0  0  0  0  0  0  0  0  0
    4.7085   -3.8012    2.9685 C   0  0  3  0  0  0  0  0  0  0  0  0
    5.6233   -4.6803    2.3116 O   0  0  0  0  0  0  0  0  0  0  0  0
    3.9626   -4.5323    4.1051 C   0  0  3  0  0  0  0  0  0  0  0  0
    3.2833   -5.7475    3.6183 N   0  0  0  0  0  0  0  0  0  0  0  0
    4.8885   -4.8522    5.3081 C   0  0  0  0  0  0  0  0  0  0  0  0
    5.8223   -3.6807    5.7375 C   0  0  3  0  0  0  0  0  0  0  0  0
    6.6381   -3.2089    4.4386 C   0  0  3  0  0  0  0  0  0  0  0  0
    7.7354   -2.2920    4.6778 O   0  0  0  0  0  0  0  0  0  0  0  0
    8.5185   -1.8446    3.5158 C   0  0  3  0  0  0  0  0  0  0  0  0
    9.2466   -2.8302    2.7612 O   0  0  0  0  0  0  0  0  0  0  0  0
   10.4610   -3.3287    3.3676 C   0  0  3  0  0  0  0  0  0  0  0  0
   11.1034   -4.3525    2.3872 C   0  0  0  0  0  0  0  0  0  0  0  0
   12.3104   -5.0551    2.8691 N   0  0  0  0  0  0  0  0  0  0  0  0
   11.4849   -2.2243    3.7448 C   0  0  3  0  0  0  0  0  0  0  0  0
   10.7947   -1.1296    4.5688 C   0  0  3  0  0  0  0  0  0  0  0  0
    9.4501   -0.6490    3.9791 C   0  0  3  0  0  0  0  0  0  0  0  0
    8.8081    0.1602    5.0289 N   0  0  0  0  0  0  0  0  0  0  0  0
   11.7418   -0.0590    4.7892 O   0  0  0  0  0  0  0  0  0  0  0  0
   12.2913   -1.7876    2.5991 O   0  0  0  0  0  0  0  0  0  0  0  0
    6.5262   -4.0755    6.9984 N   0  0  0  0  0  0  0  0  0  0  0  0
    2.2987    4.0005    1.4897 C   0  0  3  0  0  0  0  0  0  0  0  0
    1.5272    3.8234    0.1602 C   0  0  3  0  0  0  0  0  0  0  0  0
    2.2199    2.9716   -0.9333 C   0  0  3  0  0  0  0  0  0  0  0  0
    1.2880    2.5163   -1.9287 O   0  0  0  0  0  0  0  0  0  0  0  0
    1.2230    5.1284   -0.3658 O   0  0  0  0  0  0  0  0  0  0  0  0
    3.4676    4.9525    1.4054 N   0  0  0  0  0  0  0  0  0  0  0  0
    1.1231   -0.7738    0.6679 H   0  0  0  0  0  0  0  0  0  0  0  0
    0.4291    0.4936   -0.0546 H   0  0  0  0  0  0  0  0  0  0  0  0
    2.1674    0.0827   -1.3469 H   0  0  0  0  0  0  0  0  0  0  0  0
    3.1950   -0.3037    0.0262 H   0  0  0  0  0  0  0  0  0  0  0  0
    3.9074    1.7019   -1.0426 H   0  0  0  0  0  0  0  0  0  0  0  0
    1.8456    1.9901    1.9759 H   0  0  0  0  0  0  0  0  0  0  0  0
    4.4364    1.8612    4.6106 H   0  0  0  0  0  0  0  0  0  0  0  0
    5.2642    1.5258    1.8355 H   0  0  0  0  0  0  0  0  0  0  0  0
    7.1408    0.5430    2.7994 H   0  0  0  0  0  0  0  0  0  0  0  0
    6.3137    0.4038    4.3863 H   0  0  0  0  0  0  0  0  0  0  0  0
    5.9272    3.4970    2.1206 H   0  0  0  0  0  0  0  0  0  0  0  0
    8.6909    5.1477    1.6549 H   0  0  0  0  0  0  0  0  0  0  0  0
    8.9669    5.8658    3.2442 H   0  0  0  0  0  0  0  0  0  0  0  0
    6.5165    6.4719    3.3748 H   0  0  0  0  0  0  0  0  0  0  0  0
    6.2574    5.7564    1.7788 H   0  0  0  0  0  0  0  0  0  0  0  0
    5.3973    8.0366    1.8129 H   0  0  0  0  0  0  0  0  0  0  0  0
    8.3872    9.2050   -0.0831 H   0  0  0  0  0  0  0  0  0  0  0  0
    8.6295   11.4469   -0.9746 H   0  0  0  0  0  0  0  0  0  0  0  0
    6.8326   13.1147   -0.6642 H   0  0  0  0  0  0  0  0  0  0  0  0
    4.5713   10.2462    1.6339 H   0  0  0  0  0  0  0  0  0  0  0  0
    2.6867   11.4731    0.8833 H   0  0  0  0  0  0  0  0  0  0  0  0
    2.4598   16.4455    0.4993 H   0  0  0  0  0  0  0  0  0  0  0  0
    2.6672   18.4748    1.4494 H   0  0  0  0  0  0  0  0  0  0  0  0
    2.2733   20.9032    1.2414 H   0  0  0  0  0  0  0  0  0  0  0  0
    5.0050   21.1124   -2.0407 H   0  0  0  0  0  0  0  0  0  0  0  0
    5.3974   18.6891   -1.8856 H   0  0  0  0  0  0  0  0  0  0  0  0
    2.5889   22.8821    0.0209 H   0  0  0  0  0  0  0  0  0  0  0  0
    3.6367   23.0001   -1.3038 H   0  0  0  0  0  0  0  0  0  0  0  0
    3.1243   -1.5640    2.9211 H   0  0  0  0  0  0  0  0  0  0  0  0
    3.1877    0.1328    5.1386 H   0  0  0  0  0  0  0  0  0  0  0  0
    1.5955    0.3612    2.7731 H   0  0  0  0  0  0  0  0  0  0  0  0
    6.0298   -2.1652    2.6146 H   0  0  0  0  0  0  0  0  0  0  0  0
    3.9780   -3.4636    2.2243 H   0  0  0  0  0  0  0  0  0  0  0  0
    5.3135   -5.5953    2.4322 H   0  0  0  0  0  0  0  0  0  0  0  0
    3.1767   -3.8618    4.4744 H   0  0  0  0  0  0  0  0  0  0  0  0
    3.8854   -6.5305    3.3754 H   0  0  0  0  0  0  0  0  0  0  0  0
    2.6868   -5.5602    2.8069 H   0  0  0  0  0  0  0  0  0  0  0  0
    5.5201   -5.7176    5.0665 H   0  0  0  0  0  0  0  0  0  0  0  0
    4.2621   -5.1472    6.1600 H   0  0  0  0  0  0  0  0  0  0  0  0
    5.1995   -2.8370    6.0608 H   0  0  0  0  0  0  0  0  0  0  0  0
    7.1155   -4.0943    4.0055 H   0  0  0  0  0  0  0  0  0  0  0  0
    7.8196   -1.4139    2.7980 H   0  0  0  0  0  0  0  0  0  0  0  0
   10.1461   -3.8551    4.2761 H   0  0  0  0  0  0  0  0  0  0  0  0
   11.3457   -3.8490    1.4414 H   0  0  0  0  0  0  0  0  0  0  0  0
   10.3491   -5.1030    2.1276 H   0  0  0  0  0  0  0  0  0  0  0  0
   13.1072   -4.4157    2.9413 H   0  0  0  0  0  0  0  0  0  0  0  0
   12.6127   -5.7584    2.1847 H   0  0  0  0  0  0  0  0  0  0  0  0
   12.2290   -2.6764    4.4122 H   0  0  0  0  0  0  0  0  0  0  0  0
   10.5564   -1.5645    5.5531 H   0  0  0  0  0  0  0  0  0  0  0  0
    9.6704   -0.0205    3.1054 H   0  0  0  0  0  0  0  0  0  0  0  0
    7.9035   -0.2155    5.2947 H   0  0  0  0  0  0  0  0  0  0  0  0
    8.7053    1.1250    4.7296 H   0  0  0  0  0  0  0  0  0  0  0  0
   12.3756   -0.3258    5.4895 H   0  0  0  0  0  0  0  0  0  0  0  0
   12.0229   -0.8775    2.3568 H   0  0  0  0  0  0  0  0  0  0  0  0
    7.0474   -4.9388    6.8980 H   0  0  0  0  0  0  0  0  0  0  0  0
    5.8358   -4.1990    7.7395 H   0  0  0  0  0  0  0  0  0  0  0  0
    1.6282    4.4325    2.2421 H   0  0  0  0  0  0  0  0  0  0  0  0
    0.5614    3.3524    0.3871 H   0  0  0  0  0  0  0  0  0  0  0  0
    2.9158    3.6462   -1.4522 H   0  0  0  0  0  0  0  0  0  0  0  0
    0.4974    3.0802   -1.8308 H   0  0  0  0  0  0  0  0  0  0  0  0
    1.9617    5.7025   -0.0680 H   0  0  0  0  0  0  0  0  0  0  0  0
    4.1781    4.4647    0.8525 H   0  0  0  0  0  0  0  0  0  0  0  0
    3.8677    4.9722    2.3500 H   0  0  0  0  0  0  0  0  0  0  0  0
  1  2  1  0  0  0  0
  1 73  1  0  0  0  0
  1 74  1  0  0  0  0
  2  3  1  0  0  0  0
  2 75  1  0  0  0  0
  2 76  1  0  0  0  0
  3  4  1  0  0  0  0
  3 69  1  0  0  0  0
  3 77  1  0  0  0  0
  4  5  1  0  0  0  0
  5  6  1  0  0  0  0
  5 67  1  0  0  0  0
  5 78  1  0  0  0  0
  6  7  1  0  0  0  0
  7  8  1  0  0  0  0
  7 43  1  0  0  0  0
  7 79  1  0  0  0  0
  8  9  1  0  0  0  0
  8 41  1  0  0  0  0
  8 80  1  0  0  0  0
  9 10  1  0  0  0  0
  9 81  1  0  0  0  0
  9 82  1  0  0  0  0
 10 11  1  0  0  0  0
 10 14  1  0  0  0  0
 11 12  2  0  0  0  0
 12 13  1  0  0  0  0
 13 14  2  0  0  0  0
 13 15  1  0  0  0  0
 14 83  1  0  0  0  0
 15 16  1  0  0  0  0
 15 84  1  0  0  0  0
 15 85  1  0  0  0  0
 16 17  1  0  0  0  0
 16 86  1  0  0  0  0
 16 87  1  0  0  0  0
 17 18  2  0  0  0  0
 17 19  1  0  0  0  0
 19 20  1  0  0  0  0
 19 88  1  0  0  0  0
 20 21  1  0  0  0  0
 20 25  2  0  0  0  0
 21 22  2  0  0  0  0
 21 89  1  0  0  0  0
 22 23  1  0  0  0  0
 22 90  1  0  0  0  0
 23 24  2  0  0  0  0
 23 91  1  0  0  0  0
 24 25  1  0  0  0  0
 24 26  1  0  0  0  0
 25 92  1  0  0  0  0
 26 27  2  0  0  0  0
 26 30  1  0  0  0  0
 27 28  1  0  0  0  0
 27 93  1  0  0  0  0
 28 29  1  0  0  0  0
 29 30  2  0  0  0  0
 29 31  1  0  0  0  0
 31 32  1  0  0  0  0
 31 94  1  0  0  0  0
 32 33  2  0  0  0  0
 32 34  1  0  0  0  0
 34 35  1  0  0  0  0
 34 39  2  0  0  0  0
 35 36  2  0  0  0  0
 35 95  1  0  0  0  0
 36 37  1  0  0  0  0
 36 96  1  0  0  0  0
 37 38  2  0  0  0  0
 37 40  1  0  0  0  0
 38 39  1  0  0  0  0
 38 97  1  0  0  0  0
 39 98  1  0  0  0  0
 40 99  1  0  0  0  0
 40100  1  0  0  0  0
 41 42  1  0  0  0  0
 42 43  1  0  0  0  0
 42 45  1  0  0  0  0
 42101  1  0  0  0  0
 43 44  1  0  0  0  0
 43102  1  0  0  0  0
 44103  1  0  0  0  0
 45 46  1  0  0  0  0
 46 47  1  0  0  0  0
 46 53  1  0  0  0  0
 46104  1  0  0  0  0
 47 48  1  0  0  0  0
 47 49  1  0  0  0  0
 47105  1  0  0  0  0
 48106  1  0  0  0  0
 49 50  1  0  0  0  0
 49 51  1  0  0  0  0
 49107  1  0  0  0  0
 50108  1  0  0  0  0
 50109  1  0  0  0  0
 51 52  1  0  0  0  0
 51110  1  0  0  0  0
 51111  1  0  0  0  0
 52 53  1  0  0  0  0
 52 66  1  0  0  0  0
 52112  1  0  0  0  0
 53 54  1  0  0  0  0
 53113  1  0  0  0  0
 54 55  1  0  0  0  0
 55 56  1  0  0  0  0
 55 62  1  0  0  0  0
 55114  1  0  0  0  0
 56 57  1  0  0  0  0
 57 58  1  0  0  0  0
 57 60  1  0  0  0  0
 57115  1  0  0  0  0
 58 59  1  0  0  0  0
 58116  1  0  0  0  0
 58117  1  0  0  0  0
 59118  1  0  0  0  0
 59119  1  0  0  0  0
 60 61  1  0  0  0  0
 60 65  1  0  0  0  0
 60120  1  0  0  0  0
 61 62  1  0  0  0  0
 61 64  1  0  0  0  0
 61121  1  0  0  0  0
 62 63  1  0  0  0  0
 62122  1  0  0  0  0
 63123  1  0  0  0  0
 63124  1  0  0  0  0
 64125  1  0  0  0  0
 65126  1  0  0  0  0
 66127  1  0  0  0  0
 66128  1  0  0  0  0
 67 68  1  0  0  0  0
 67 72  1  0  0  0  0
 67129  1  0  0  0  0
 68 69  1  0  0  0  0
 68 71  1  0  0  0  0
 68130  1  0  0  0  0
 69 70  1  0  0  0  0
 69131  1  0  0  0  0
 70132  1  0  0  0  0
 71133  1  0  0  0  0
 72134  1  0  0  0  0
 72135  1  0  0  0  0
M  END
$$$$
Target_lig_766
 OpenBabel04172506213D

132138  0  0  1  0  0  0  0  0999 V2000
    3.2264    4.4020   -5.9888 N   0  0  0  0  0  0  0  0  0  0  0  0
    4.6093    4.1111   -5.5989 C   0  0  0  0  0  0  0  0  0  0  0  0
    4.7089    2.8456   -4.7153 C   0  0  3  0  0  0  0  0  0  0  0  0
    3.9093    2.9690   -3.5432 O   0  0  0  0  0  0  0  0  0  0  0  0
    4.3572    3.8557   -2.5369 C   0  0  3  0  0  0  0  0  0  0  0  0
    3.4955    3.7563   -1.4064 O   0  0  0  0  0  0  0  0  0  0  0  0
    2.1673    4.2473   -1.5984 C   0  0  3  0  0  0  0  0  0  0  0  0
    1.4421    4.0769   -0.2571 C   0  0  3  0  0  0  0  0  0  0  0  0
    1.1899    5.4097    0.4409 C   0  0  0  0  0  0  0  0  0  0  0  0
    2.3853    5.9804    1.0116 N   0  0  0  0  0  0  0  0  0  0  0  0
    2.4035    7.2249    1.5282 N   0  0  0  0  0  0  0  0  0  0  0  0
    3.6106    7.4067    2.0781 N   0  0  0  0  0  0  0  0  0  0  0  0
    4.3346    6.2638    1.8650 C   0  0  0  0  0  0  0  0  0  0  0  0
    3.5762    5.3722    1.1730 C   0  0  0  0  0  0  0  0  0  0  0  0
    5.7360    6.0432    2.2788 C   0  0  0  0  0  0  0  0  0  0  0  0
    6.7199    6.6277    1.2655 C   0  0  0  0  0  0  0  0  0  0  0  0
    6.6291    8.1449    1.1431 C   0  0  0  0  0  0  0  0  0  0  0  0
    6.7721    8.8171    2.5090 C   0  0  0  0  0  0  0  0  0  0  0  0
    6.7788   10.3191    2.3681 C   0  0  0  0  0  0  0  0  0  0  0  0
    7.7896   10.9268    2.6293 O   0  0  0  0  0  0  0  0  0  0  0  0
    5.5593   10.8297    1.9628 N   0  0  0  0  0  0  0  0  0  0  0  0
    5.3238   12.1949    1.6719 C   0  0  0  0  0  0  0  0  0  0  0  0
    6.3564   13.1303    1.5382 C   0  0  0  0  0  0  0  0  0  0  0  0
    6.0779   14.4764    1.3141 C   0  0  0  0  0  0  0  0  0  0  0  0
    4.7592   14.8943    1.1869 C   0  0  0  0  0  0  0  0  0  0  0  0
    3.7070   13.9702    1.2449 C   0  0  0  0  0  0  0  0  0  0  0  0
    3.9978   12.6204    1.5066 C   0  0  0  0  0  0  0  0  0  0  0  0
    2.3451   14.4427    1.0239 C   0  0  0  0  0  0  0  0  0  0  0  0
    1.3118   13.6520    0.5534 C   0  0  0  0  0  0  0  0  0  0  0  0
   -0.1222   14.5845    0.4137 S   0  0  0  0  0  0  0  0  0  0  0  0
    0.7532   15.9638    0.9089 C   0  0  0  0  0  0  0  0  0  0  0  0
    2.0107   15.7785    1.2065 N   0  0  0  0  0  0  0  0  0  0  0  0
    0.0118   17.1119    0.9159 N   0  0  0  0  0  0  0  0  0  0  0  0
    0.5748   18.3554    1.0823 C   0  0  0  0  0  0  0  0  0  0  0  0
    1.7642   18.6219    1.2158 O   0  0  0  0  0  0  0  0  0  0  0  0
   -0.4482   19.4652    1.0509 C   0  0  0  0  0  0  0  0  0  0  0  0
    0.2148    3.3943   -0.4875 O   0  0  0  0  0  0  0  0  0  0  0  0
   -0.0618    3.4409   -1.8878 C   0  0  3  0  0  0  0  0  0  0  0  0
    1.3026    3.4350   -2.5517 C   0  0  3  0  0  0  0  0  0  0  0  0
    1.7109    2.0461   -2.5644 O   0  0  0  0  0  0  0  0  0  0  0  0
   -1.0078    4.4864   -2.1542 O   0  0  0  0  0  0  0  0  0  0  0  0
   -2.2235    4.1595   -1.4138 C   0  0  3  0  0  0  0  0  0  0  0  0
   -2.8828    2.8637   -1.9793 C   0  0  3  0  0  0  0  0  0  0  0  0
   -3.2874    2.0175   -0.8880 O   0  0  0  0  0  0  0  0  0  0  0  0
   -4.0237    3.0707   -2.9737 C   0  0  3  0  0  0  0  0  0  0  0  0
   -4.6838    1.7723   -3.2187 N   0  0  0  0  0  0  0  0  0  0  0  0
   -5.0257    4.0826   -2.4506 C   0  0  0  0  0  0  0  0  0  0  0  0
   -4.3606    5.4425   -2.1631 C   0  0  3  0  0  0  0  0  0  0  0  0
   -3.2283    5.3261   -1.1044 C   0  0  3  0  0  0  0  0  0  0  0  0
   -2.5412    6.5824   -0.7990 O   0  0  0  0  0  0  0  0  0  0  0  0
   -3.1730    7.3730    0.2473 C   0  0  3  0  0  0  0  0  0  0  0  0
   -4.1834    8.2672   -0.2021 O   0  0  0  0  0  0  0  0  0  0  0  0
   -3.7165    9.3572   -1.0168 C   0  0  3  0  0  0  0  0  0  0  0  0
   -4.9715   10.1480   -1.4526 C   0  0  0  0  0  0  0  0  0  0  0  0
   -5.8817   10.4577   -0.3384 N   0  0  0  0  0  0  0  0  0  0  0  0
   -2.6742   10.2237   -0.2819 C   0  0  3  0  0  0  0  0  0  0  0  0
   -1.5507    9.3474    0.2850 C   0  0  3  0  0  0  0  0  0  0  0  0
   -2.1599    8.1906    1.1126 C   0  0  3  0  0  0  0  0  0  0  0  0
   -1.1361    7.3441    1.7332 N   0  0  0  0  0  0  0  0  0  0  0  0
   -0.7181   10.1951    1.1022 O   0  0  0  0  0  0  0  0  0  0  0  0
   -3.2034   10.9720    0.8308 O   0  0  0  0  0  0  0  0  0  0  0  0
   -5.4385    6.3252   -1.7038 N   0  0  0  0  0  0  0  0  0  0  0  0
    5.7775    3.4657   -2.0534 C   0  0  3  0  0  0  0  0  0  0  0  0
    6.7063    3.4054   -3.2743 C   0  0  3  0  0  0  0  0  0  0  0  0
    6.1467    2.4577   -4.3541 C   0  0  3  0  0  0  0  0  0  0  0  0
    6.9579    2.4372   -5.5321 O   0  0  0  0  0  0  0  0  0  0  0  0
    8.0159    2.9891   -2.8740 O   0  0  0  0  0  0  0  0  0  0  0  0
    5.8171    2.1718   -1.3004 N   0  0  0  0  0  0  0  0  0  0  0  0
    3.1601    5.3422   -6.3726 H   0  0  0  0  0  0  0  0  0  0  0  0
    2.6210    4.3458   -5.1771 H   0  0  0  0  0  0  0  0  0  0  0  0
    4.9920    4.9820   -5.0596 H   0  0  0  0  0  0  0  0  0  0  0  0
    5.2041    3.9892   -6.5071 H   0  0  0  0  0  0  0  0  0  0  0  0
    4.2778    2.0168   -5.2916 H   0  0  0  0  0  0  0  0  0  0  0  0
    4.3536    4.8914   -2.8943 H   0  0  0  0  0  0  0  0  0  0  0  0
    2.2045    5.3024   -1.8978 H   0  0  0  0  0  0  0  0  0  0  0  0
    1.9888    3.4095    0.4160 H   0  0  0  0  0  0  0  0  0  0  0  0
    0.4986    5.2411    1.2722 H   0  0  0  0  0  0  0  0  0  0  0  0
    0.7462    6.1379   -0.2483 H   0  0  0  0  0  0  0  0  0  0  0  0
    3.8214    4.3840    0.8282 H   0  0  0  0  0  0  0  0  0  0  0  0
    5.9062    4.9599    2.3209 H   0  0  0  0  0  0  0  0  0  0  0  0
    5.9003    6.4087    3.2899 H   0  0  0  0  0  0  0  0  0  0  0  0
    6.5559    6.1851    0.2743 H   0  0  0  0  0  0  0  0  0  0  0  0
    7.7356    6.3465    1.5696 H   0  0  0  0  0  0  0  0  0  0  0  0
    5.6828    8.4307    0.6672 H   0  0  0  0  0  0  0  0  0  0  0  0
    7.4159    8.4978    0.4676 H   0  0  0  0  0  0  0  0  0  0  0  0
    7.7147    8.5135    2.9661 H   0  0  0  0  0  0  0  0  0  0  0  0
    5.9698    8.5519    3.1986 H   0  0  0  0  0  0  0  0  0  0  0  0
    4.7591   10.2171    1.9623 H   0  0  0  0  0  0  0  0  0  0  0  0
    7.3988   12.8397    1.5988 H   0  0  0  0  0  0  0  0  0  0  0  0
    6.8923   15.1866    1.2395 H   0  0  0  0  0  0  0  0  0  0  0  0
    4.5552   15.9522    1.0223 H   0  0  0  0  0  0  0  0  0  0  0  0
    3.1914   11.8978    1.6051 H   0  0  0  0  0  0  0  0  0  0  0  0
    1.3195   12.6054    0.2838 H   0  0  0  0  0  0  0  0  0  0  0  0
   -0.9667   17.0081    0.6981 H   0  0  0  0  0  0  0  0  0  0  0  0
   -1.4699   19.0841    0.9697 H   0  0  0  0  0  0  0  0  0  0  0  0
   -0.2488   20.1084    0.1890 H   0  0  0  0  0  0  0  0  0  0  0  0
   -0.3699   20.0487    1.9723 H   0  0  0  0  0  0  0  0  0  0  0  0
   -0.4812    2.4765   -2.1514 H   0  0  0  0  0  0  0  0  0  0  0  0
    1.3084    3.8138   -3.5749 H   0  0  0  0  0  0  0  0  0  0  0  0
    1.6279    1.7037   -1.6549 H   0  0  0  0  0  0  0  0  0  0  0  0
   -1.8858    3.9236   -0.3982 H   0  0  0  0  0  0  0  0  0  0  0  0
   -2.1868    2.2493   -2.5485 H   0  0  0  0  0  0  0  0  0  0  0  0
   -4.1188    2.3435   -0.5209 H   0  0  0  0  0  0  0  0  0  0  0  0
   -3.6218    3.4353   -3.9273 H   0  0  0  0  0  0  0  0  0  0  0  0
   -4.6812    1.2396   -2.3401 H   0  0  0  0  0  0  0  0  0  0  0  0
   -4.0719    1.2032   -3.8121 H   0  0  0  0  0  0  0  0  0  0  0  0
   -5.5040    3.6984   -1.5385 H   0  0  0  0  0  0  0  0  0  0  0  0
   -5.8254    4.2066   -3.1919 H   0  0  0  0  0  0  0  0  0  0  0  0
   -3.9459    5.8672   -3.0843 H   0  0  0  0  0  0  0  0  0  0  0  0
   -3.7158    4.9885   -0.1787 H   0  0  0  0  0  0  0  0  0  0  0  0
   -3.6634    6.6819    0.9402 H   0  0  0  0  0  0  0  0  0  0  0  0
   -3.2517    8.9385   -1.9184 H   0  0  0  0  0  0  0  0  0  0  0  0
   -5.5346    9.5314   -2.1627 H   0  0  0  0  0  0  0  0  0  0  0  0
   -4.6907   11.0727   -1.9682 H   0  0  0  0  0  0  0  0  0  0  0  0
   -6.0612    9.5808    0.1564 H   0  0  0  0  0  0  0  0  0  0  0  0
   -6.7825   10.7452   -0.7234 H   0  0  0  0  0  0  0  0  0  0  0  0
   -2.2528   10.9710   -0.9640 H   0  0  0  0  0  0  0  0  0  0  0  0
   -0.9228    8.9562   -0.5229 H   0  0  0  0  0  0  0  0  0  0  0  0
   -2.7159    8.6417    1.9446 H   0  0  0  0  0  0  0  0  0  0  0  0
   -0.7500    6.7836    0.9861 H   0  0  0  0  0  0  0  0  0  0  0  0
   -1.5552    6.7094    2.4071 H   0  0  0  0  0  0  0  0  0  0  0  0
   -1.3387   10.7870    1.5731 H   0  0  0  0  0  0  0  0  0  0  0  0
   -3.9400   10.4556    1.2106 H   0  0  0  0  0  0  0  0  0  0  0  0
   -5.8254    5.9969   -0.8198 H   0  0  0  0  0  0  0  0  0  0  0  0
   -6.2074    6.3428   -2.3710 H   0  0  0  0  0  0  0  0  0  0  0  0
    6.1446    4.2157   -1.3428 H   0  0  0  0  0  0  0  0  0  0  0  0
    6.8272    4.4114   -3.6920 H   0  0  0  0  0  0  0  0  0  0  0  0
    6.1563    1.4357   -3.9579 H   0  0  0  0  0  0  0  0  0  0  0  0
    7.6145    3.1549   -5.4660 H   0  0  0  0  0  0  0  0  0  0  0  0
    7.8688    2.3242   -2.1676 H   0  0  0  0  0  0  0  0  0  0  0  0
    5.2937    1.4775   -1.8455 H   0  0  0  0  0  0  0  0  0  0  0  0
    5.2154    2.2940   -0.4795 H   0  0  0  0  0  0  0  0  0  0  0  0
  1  2  1  0  0  0  0
  1 69  1  0  0  0  0
  1 70  1  0  0  0  0
  2  3  1  0  0  0  0
  2 71  1  0  0  0  0
  2 72  1  0  0  0  0
  3  4  1  0  0  0  0
  3 65  1  0  0  0  0
  3 73  1  0  0  0  0
  4  5  1  0  0  0  0
  5  6  1  0  0  0  0
  5 63  1  0  0  0  0
  5 74  1  0  0  0  0
  6  7  1  0  0  0  0
  7  8  1  0  0  0  0
  7 39  1  0  0  0  0
  7 75  1  0  0  0  0
  8  9  1  0  0  0  0
  8 37  1  0  0  0  0
  8 76  1  0  0  0  0
  9 10  1  0  0  0  0
  9 77  1  0  0  0  0
  9 78  1  0  0  0  0
 10 11  1  0  0  0  0
 10 14  1  0  0  0  0
 11 12  2  0  0  0  0
 12 13  1  0  0  0  0
 13 14  2  0  0  0  0
 13 15  1  0  0  0  0
 14 79  1  0  0  0  0
 15 16  1  0  0  0  0
 15 80  1  0  0  0  0
 15 81  1  0  0  0  0
 16 17  1  0  0  0  0
 16 82  1  0  0  0  0
 16 83  1  0  0  0  0
 17 18  1  0  0  0  0
 17 84  1  0  0  0  0
 17 85  1  0  0  0  0
 18 19  1  0  0  0  0
 18 86  1  0  0  0  0
 18 87  1  0  0  0  0
 19 20  2  0  0  0  0
 19 21  1  0  0  0  0
 21 22  1  0  0  0  0
 21 88  1  0  0  0  0
 22 23  1  0  0  0  0
 22 27  2  0  0  0  0
 23 24  2  0  0  0  0
 23 89  1  0  0  0  0
 24 25  1  0  0  0  0
 24 90  1  0  0  0  0
 25 26  2  0  0  0  0
 25 91  1  0  0  0  0
 26 27  1  0  0  0  0
 26 28  1  0  0  0  0
 27 92  1  0  0  0  0
 28 29  2  0  0  0  0
 28 32  1  0  0  0  0
 29 30  1  0  0  0  0
 29 93  1  0  0  0  0
 30 31  1  0  0  0  0
 31 32  2  0  0  0  0
 31 33  1  0  0  0  0
 33 34  1  0  0  0  0
 33 94  1  0  0  0  0
 34 35  2  0  0  0  0
 34 36  1  0  0  0  0
 36 95  1  0  0  0  0
 36 96  1  0  0  0  0
 36 97  1  0  0  0  0
 37 38  1  0  0  0  0
 38 39  1  0  0  0  0
 38 41  1  0  0  0  0
 38 98  1  0  0  0  0
 39 40  1  0  0  0  0
 39 99  1  0  0  0  0
 40100  1  0  0  0  0
 41 42  1  0  0  0  0
 42 43  1  0  0  0  0
 42 49  1  0  0  0  0
 42101  1  0  0  0  0
 43 44  1  0  0  0  0
 43 45  1  0  0  0  0
 43102  1  0  0  0  0
 44103  1  0  0  0  0
 45 46  1  0  0  0  0
 45 47  1  0  0  0  0
 45104  1  0  0  0  0
 46105  1  0  0  0  0
 46106  1  0  0  0  0
 47 48  1  0  0  0  0
 47107  1  0  0  0  0
 47108  1  0  0  0  0
 48 49  1  0  0  0  0
 48 62  1  0  0  0  0
 48109  1  0  0  0  0
 49 50  1  0  0  0  0
 49110  1  0  0  0  0
 50 51  1  0  0  0  0
 51 52  1  0  0  0  0
 51 58  1  0  0  0  0
 51111  1  0  0  0  0
 52 53  1  0  0  0  0
 53 54  1  0  0  0  0
 53 56  1  0  0  0  0
 53112  1  0  0  0  0
 54 55  1  0  0  0  0
 54113  1  0  0  0  0
 54114  1  0  0  0  0
 55115  1  0  0  0  0
 55116  1  0  0  0  0
 56 57  1  0  0  0  0
 56 61  1  0  0  0  0
 56117  1  0  0  0  0
 57 58  1  0  0  0  0
 57 60  1  0  0  0  0
 57118  1  0  0  0  0
 58 59  1  0  0  0  0
 58119  1  0  0  0  0
 59120  1  0  0  0  0
 59121  1  0  0  0  0
 60122  1  0  0  0  0
 61123  1  0  0  0  0
 62124  1  0  0  0  0
 62125  1  0  0  0  0
 63 64  1  0  0  0  0
 63 68  1  0  0  0  0
 63126  1  0  0  0  0
 64 65  1  0  0  0  0
 64 67  1  0  0  0  0
 64127  1  0  0  0  0
 65 66  1  0  0  0  0
 65128  1  0  0  0  0
 66129  1  0  0  0  0
 67130  1  0  0  0  0
 68131  1  0  0  0  0
 68132  1  0  0  0  0
M  END
$$$$
Target_lig_767
 OpenBabel04172506213D

135141  0  0  1  0  0  0  0  0999 V2000
    6.6626   -4.7713   -6.0728 N   0  0  0  0  0  0  0  0  0  0  0  0
    6.5760   -4.0084   -4.8349 C   0  0  0  0  0  0  0  0  0  0  0  0
    5.1410   -3.6253   -4.4406 C   0  0  3  0  0  0  0  0  0  0  0  0
    5.1915   -2.8006   -3.2922 O   0  0  0  0  0  0  0  0  0  0  0  0
    5.5165   -3.4626   -2.0823 C   0  0  3  0  0  0  0  0  0  0  0  0
    5.4035   -2.4895   -1.0734 O   0  0  0  0  0  0  0  0  0  0  0  0
    6.3491   -1.4485   -1.1335 C   0  0  3  0  0  0  0  0  0  0  0  0
    5.9833   -0.6911    0.1154 C   0  0  3  0  0  0  0  0  0  0  0  0
    7.0110   -0.9970    1.1565 C   0  0  0  0  0  0  0  0  0  0  0  0
    7.0565   -2.3428    1.6490 N   0  0  0  0  0  0  0  0  0  0  0  0
    8.0724   -3.1610    1.3270 N   0  0  0  0  0  0  0  0  0  0  0  0
    8.1103   -4.1192    2.2457 N   0  0  0  0  0  0  0  0  0  0  0  0
    7.1136   -3.8743    3.1485 C   0  0  0  0  0  0  0  0  0  0  0  0
    6.4083   -2.7657    2.7625 C   0  0  0  0  0  0  0  0  0  0  0  0
    6.8746   -4.7008    4.3457 C   0  0  0  0  0  0  0  0  0  0  0  0
    5.5224   -5.4030    4.2197 C   0  0  0  0  0  0  0  0  0  0  0  0
    5.0785   -6.1010    5.4976 C   0  0  0  0  0  0  0  0  0  0  0  0
    4.9012   -5.1718    6.7041 C   0  0  0  0  0  0  0  0  0  0  0  0
    3.9306   -4.0061    6.4708 C   0  0  0  0  0  0  0  0  0  0  0  0
    2.5104   -4.5142    6.2835 C   0  0  0  0  0  0  0  0  0  0  0  0
    1.9688   -5.0830    7.2273 O   0  0  0  0  0  0  0  0  0  0  0  0
    1.9839   -4.3148    5.0110 N   0  0  0  0  0  0  0  0  0  0  0  0
    0.6885   -4.7076    4.5896 C   0  0  0  0  0  0  0  0  0  0  0  0
   -0.2696   -5.1905    5.4863 C   0  0  0  0  0  0  0  0  0  0  0  0
   -1.5219   -5.6083    5.0516 C   0  0  0  0  0  0  0  0  0  0  0  0
   -1.8521   -5.5112    3.7083 C   0  0  0  0  0  0  0  0  0  0  0  0
   -0.9437   -4.9705    2.7858 C   0  0  0  0  0  0  0  0  0  0  0  0
    0.3396   -4.5883    3.2297 C   0  0  0  0  0  0  0  0  0  0  0  0
   -1.3681   -4.7944    1.3990 C   0  0  0  0  0  0  0  0  0  0  0  0
   -2.6650   -4.4376    1.0628 C   0  0  0  0  0  0  0  0  0  0  0  0
   -2.8264   -4.3090   -0.6328 S   0  0  0  0  0  0  0  0  0  0  0  0
   -1.2005   -4.8036   -0.7921 C   0  0  0  0  0  0  0  0  0  0  0  0
   -0.5239   -4.9796    0.3166 N   0  0  0  0  0  0  0  0  0  0  0  0
   -0.8352   -4.9591   -2.0971 N   0  0  0  0  0  0  0  0  0  0  0  0
    0.2725   -5.6756   -2.4647 C   0  0  0  0  0  0  0  0  0  0  0  0
    1.0526   -6.2546   -1.7154 O   0  0  0  0  0  0  0  0  0  0  0  0
    0.4632   -5.7152   -3.9616 C   0  0  0  0  0  0  0  0  0  0  0  0
    5.9356    0.7112   -0.1830 O   0  0  0  0  0  0  0  0  0  0  0  0
    6.6380    0.9039   -1.4202 C   0  0  3  0  0  0  0  0  0  0  0  0
    6.2619   -0.3651   -2.2036 C   0  0  3  0  0  0  0  0  0  0  0  0
    4.8995   -0.1839   -2.6426 O   0  0  0  0  0  0  0  0  0  0  0  0
    8.0083    1.2142   -1.1140 O   0  0  0  0  0  0  0  0  0  0  0  0
    8.0631    2.4608   -0.3395 C   0  0  3  0  0  0  0  0  0  0  0  0
    7.7602    3.7001   -1.2096 C   0  0  3  0  0  0  0  0  0  0  0  0
    7.4346    4.8209   -0.3701 O   0  0  0  0  0  0  0  0  0  0  0  0
    8.9064    4.0432   -2.1758 C   0  0  3  0  0  0  0  0  0  0  0  0
    8.6086    5.3278   -2.8386 N   0  0  0  0  0  0  0  0  0  0  0  0
   10.2632    4.1426   -1.4682 C   0  0  0  0  0  0  0  0  0  0  0  0
   10.5678    2.9414   -0.5469 C   0  0  3  0  0  0  0  0  0  0  0  0
    9.3984    2.6927    0.4523 C   0  0  3  0  0  0  0  0  0  0  0  0
    9.7484    1.6727    1.4206 O   0  0  0  0  0  0  0  0  0  0  0  0
    8.7277    1.3937    2.3930 C   0  0  3  0  0  0  0  0  0  0  0  0
    8.2060    2.5369    3.0624 O   0  0  0  0  0  0  0  0  0  0  0  0
    8.7029    2.7551    4.3817 C   0  0  3  0  0  0  0  0  0  0  0  0
    7.9938    3.9924    4.9698 C   0  0  0  0  0  0  0  0  0  0  0  0
    6.5334    3.8611    5.0898 N   0  0  0  0  0  0  0  0  0  0  0  0
    8.5225    1.5073    5.2604 C   0  0  3  0  0  0  0  0  0  0  0  0
    9.4618    0.4362    4.7092 C   0  0  3  0  0  0  0  0  0  0  0  0
    9.0573    0.1133    3.2671 C   0  0  3  0  0  0  0  0  0  0  0  0
   10.0083   -0.8369    2.6578 N   0  0  0  0  0  0  0  0  0  0  0  0
    9.3820   -0.7329    5.5454 O   0  0  0  0  0  0  0  0  0  0  0  0
    7.1650    1.0159    5.2144 O   0  0  0  0  0  0  0  0  0  0  0  0
   11.8435    3.2125    0.1414 N   0  0  0  0  0  0  0  0  0  0  0  0
    4.4917   -4.5667   -1.7382 C   0  0  3  0  0  0  0  0  0  0  0  0
    4.4350   -5.5363   -2.9253 C   0  0  3  0  0  0  0  0  0  0  0  0
    4.1360   -4.7737   -4.2299 C   0  0  3  0  0  0  0  0  0  0  0  0
    4.0685   -5.6320   -5.3631 O   0  0  0  0  0  0  0  0  0  0  0  0
    3.4751   -6.5684   -2.6742 O   0  0  0  0  0  0  0  0  0  0  0  0
    3.1586   -3.9689   -1.4151 N   0  0  0  0  0  0  0  0  0  0  0  0
    7.6438   -4.9876   -6.2594 H   0  0  0  0  0  0  0  0  0  0  0  0
    6.3679   -4.1731   -6.8494 H   0  0  0  0  0  0  0  0  0  0  0  0
    7.1679   -3.0853   -4.9308 H   0  0  0  0  0  0  0  0  0  0  0  0
    7.0624   -4.5822   -4.0408 H   0  0  0  0  0  0  0  0  0  0  0  0
    4.7454   -2.9924   -5.2470 H   0  0  0  0  0  0  0  0  0  0  0  0
    6.5290   -3.8714   -2.0948 H   0  0  0  0  0  0  0  0  0  0  0  0
    7.3682   -1.8598   -1.1082 H   0  0  0  0  0  0  0  0  0  0  0  0
    4.9910   -0.9493    0.5078 H   0  0  0  0  0  0  0  0  0  0  0  0
    6.7352   -0.3815    2.0102 H   0  0  0  0  0  0  0  0  0  0  0  0
    8.0131   -0.7375    0.7967 H   0  0  0  0  0  0  0  0  0  0  0  0
    5.5912   -2.2165    3.2087 H   0  0  0  0  0  0  0  0  0  0  0  0
    6.8916   -4.0299    5.2134 H   0  0  0  0  0  0  0  0  0  0  0  0
    7.6784   -5.4295    4.4904 H   0  0  0  0  0  0  0  0  0  0  0  0
    5.5768   -6.1360    3.4054 H   0  0  0  0  0  0  0  0  0  0  0  0
    4.7492   -4.6891    3.9108 H   0  0  0  0  0  0  0  0  0  0  0  0
    5.8061   -6.8805    5.7511 H   0  0  0  0  0  0  0  0  0  0  0  0
    4.1316   -6.6151    5.2947 H   0  0  0  0  0  0  0  0  0  0  0  0
    5.8730   -4.7690    7.0112 H   0  0  0  0  0  0  0  0  0  0  0  0
    4.5528   -5.7803    7.5480 H   0  0  0  0  0  0  0  0  0  0  0  0
    4.2452   -3.3657    5.6450 H   0  0  0  0  0  0  0  0  0  0  0  0
    3.9187   -3.3719    7.3656 H   0  0  0  0  0  0  0  0  0  0  0  0
    2.5942   -3.9370    4.3013 H   0  0  0  0  0  0  0  0  0  0  0  0
   -0.0783   -5.2613    6.5515 H   0  0  0  0  0  0  0  0  0  0  0  0
   -2.2348   -6.0079    5.7671 H   0  0  0  0  0  0  0  0  0  0  0  0
   -2.8296   -5.8656    3.3924 H   0  0  0  0  0  0  0  0  0  0  0  0
    1.0537   -4.2031    2.5056 H   0  0  0  0  0  0  0  0  0  0  0  0
   -3.5064   -4.2453    1.7116 H   0  0  0  0  0  0  0  0  0  0  0  0
   -1.5206   -4.6981   -2.7878 H   0  0  0  0  0  0  0  0  0  0  0  0
   -0.3830   -5.2818   -4.4999 H   0  0  0  0  0  0  0  0  0  0  0  0
    0.5906   -6.7517   -4.2816 H   0  0  0  0  0  0  0  0  0  0  0  0
    1.3458   -5.1411   -4.2270 H   0  0  0  0  0  0  0  0  0  0  0  0
    6.1872    1.7375   -1.9565 H   0  0  0  0  0  0  0  0  0  0  0  0
    6.8887   -0.5819   -3.0721 H   0  0  0  0  0  0  0  0  0  0  0  0
    4.3727    0.0466   -1.8527 H   0  0  0  0  0  0  0  0  0  0  0  0
    7.2745    2.4248    0.4153 H   0  0  0  0  0  0  0  0  0  0  0  0
    6.8645    3.5423   -1.8134 H   0  0  0  0  0  0  0  0  0  0  0  0
    8.2549    5.2433   -0.0680 H   0  0  0  0  0  0  0  0  0  0  0  0
    8.9739    3.2669   -2.9476 H   0  0  0  0  0  0  0  0  0  0  0  0
    8.3956    6.0287   -2.1232 H   0  0  0  0  0  0  0  0  0  0  0  0
    7.7194    5.2406   -3.3383 H   0  0  0  0  0  0  0  0  0  0  0  0
   10.3011    5.0688   -0.8772 H   0  0  0  0  0  0  0  0  0  0  0  0
   11.0539    4.2364   -2.2256 H   0  0  0  0  0  0  0  0  0  0  0  0
   10.7166    2.0371   -1.1488 H   0  0  0  0  0  0  0  0  0  0  0  0
    9.2829    3.6149    1.0371 H   0  0  0  0  0  0  0  0  0  0  0  0
    7.8858    1.1075    1.7837 H   0  0  0  0  0  0  0  0  0  0  0  0
    9.7670    2.9992    4.2967 H   0  0  0  0  0  0  0  0  0  0  0  0
    8.1989    4.8559    4.3283 H   0  0  0  0  0  0  0  0  0  0  0  0
    8.4061    4.2044    5.9620 H   0  0  0  0  0  0  0  0  0  0  0  0
    6.1411    3.8482    4.1430 H   0  0  0  0  0  0  0  0  0  0  0  0
    6.1738    4.7267    5.5028 H   0  0  0  0  0  0  0  0  0  0  0  0
    8.7597    1.7083    6.3106 H   0  0  0  0  0  0  0  0  0  0  0  0
   10.4980    0.7842    4.7457 H   0  0  0  0  0  0  0  0  0  0  0  0
    8.1222   -0.4350    3.4005 H   0  0  0  0  0  0  0  0  0  0  0  0
   10.4198   -0.4174    1.8205 H   0  0  0  0  0  0  0  0  0  0  0  0
    9.5426   -1.7116    2.3580 H   0  0  0  0  0  0  0  0  0  0  0  0
    8.4921   -1.1082    5.4161 H   0  0  0  0  0  0  0  0  0  0  0  0
    6.5938    1.8146    5.2723 H   0  0  0  0  0  0  0  0  0  0  0  0
   11.8037    4.0992    0.6411 H   0  0  0  0  0  0  0  0  0  0  0  0
   12.5949    3.3039   -0.5423 H   0  0  0  0  0  0  0  0  0  0  0  0
    4.7958   -5.1006   -0.8286 H   0  0  0  0  0  0  0  0  0  0  0  0
    5.3984   -6.0529   -3.0192 H   0  0  0  0  0  0  0  0  0  0  0  0
    3.1559   -4.3115   -4.1343 H   0  0  0  0  0  0  0  0  0  0  0  0
    4.9903   -5.8243   -5.6344 H   0  0  0  0  0  0  0  0  0  0  0  0
    2.7639   -6.1961   -2.1151 H   0  0  0  0  0  0  0  0  0  0  0  0
    2.9683   -3.2341   -2.1005 H   0  0  0  0  0  0  0  0  0  0  0  0
    3.2815   -3.4376   -0.5471 H   0  0  0  0  0  0  0  0  0  0  0  0
  1  2  1  0  0  0  0
  1 70  1  0  0  0  0
  1 71  1  0  0  0  0
  2  3  1  0  0  0  0
  2 72  1  0  0  0  0
  2 73  1  0  0  0  0
  3  4  1  0  0  0  0
  3 66  1  0  0  0  0
  3 74  1  0  0  0  0
  4  5  1  0  0  0  0
  5  6  1  0  0  0  0
  5 64  1  0  0  0  0
  5 75  1  0  0  0  0
  6  7  1  0  0  0  0
  7  8  1  0  0  0  0
  7 40  1  0  0  0  0
  7 76  1  0  0  0  0
  8  9  1  0  0  0  0
  8 38  1  0  0  0  0
  8 77  1  0  0  0  0
  9 10  1  0  0  0  0
  9 78  1  0  0  0  0
  9 79  1  0  0  0  0
 10 11  1  0  0  0  0
 10 14  1  0  0  0  0
 11 12  2  0  0  0  0
 12 13  1  0  0  0  0
 13 14  2  0  0  0  0
 13 15  1  0  0  0  0
 14 80  1  0  0  0  0
 15 16  1  0  0  0  0
 15 81  1  0  0  0  0
 15 82  1  0  0  0  0
 16 17  1  0  0  0  0
 16 83  1  0  0  0  0
 16 84  1  0  0  0  0
 17 18  1  0  0  0  0
 17 85  1  0  0  0  0
 17 86  1  0  0  0  0
 18 19  1  0  0  0  0
 18 87  1  0  0  0  0
 18 88  1  0  0  0  0
 19 20  1  0  0  0  0
 19 89  1  0  0  0  0
 19 90  1  0  0  0  0
 20 21  2  0  0  0  0
 20 22  1  0  0  0  0
 22 23  1  0  0  0  0
 22 91  1  0  0  0  0
 23 24  1  0  0  0  0
 23 28  2  0  0  0  0
 24 25  2  0  0  0  0
 24 92  1  0  0  0  0
 25 26  1  0  0  0  0
 25 93  1  0  0  0  0
 26 27  2  0  0  0  0
 26 94  1  0  0  0  0
 27 28  1  0  0  0  0
 27 29  1  0  0  0  0
 28 95  1  0  0  0  0
 29 30  2  0  0  0  0
 29 33  1  0  0  0  0
 30 31  1  0  0  0  0
 30 96  1  0  0  0  0
 31 32  1  0  0  0  0
 32 33  2  0  0  0  0
 32 34  1  0  0  0  0
 34 35  1  0  0  0  0
 34 97  1  0  0  0  0
 35 36  2  0  0  0  0
 35 37  1  0  0  0  0
 37 98  1  0  0  0  0
 37 99  1  0  0  0  0
 37100  1  0  0  0  0
 38 39  1  0  0  0  0
 39 40  1  0  0  0  0
 39 42  1  0  0  0  0
 39101  1  0  0  0  0
 40 41  1  0  0  0  0
 40102  1  0  0  0  0
 41103  1  0  0  0  0
 42 43  1  0  0  0  0
 43 44  1  0  0  0  0
 43 50  1  0  0  0  0
 43104  1  0  0  0  0
 44 45  1  0  0  0  0
 44 46  1  0  0  0  0
 44105  1  0  0  0  0
 45106  1  0  0  0  0
 46 47  1  0  0  0  0
 46 48  1  0  0  0  0
 46107  1  0  0  0  0
 47108  1  0  0  0  0
 47109  1  0  0  0  0
 48 49  1  0  0  0  0
 48110  1  0  0  0  0
 48111  1  0  0  0  0
 49 50  1  0  0  0  0
 49 63  1  0  0  0  0
 49112  1  0  0  0  0
 50 51  1  0  0  0  0
 50113  1  0  0  0  0
 51 52  1  0  0  0  0
 52 53  1  0  0  0  0
 52 59  1  0  0  0  0
 52114  1  0  0  0  0
 53 54  1  0  0  0  0
 54 55  1  0  0  0  0
 54 57  1  0  0  0  0
 54115  1  0  0  0  0
 55 56  1  0  0  0  0
 55116  1  0  0  0  0
 55117  1  0  0  0  0
 56118  1  0  0  0  0
 56119  1  0  0  0  0
 57 58  1  0  0  0  0
 57 62  1  0  0  0  0
 57120  1  0  0  0  0
 58 59  1  0  0  0  0
 58 61  1  0  0  0  0
 58121  1  0  0  0  0
 59 60  1  0  0  0  0
 59122  1  0  0  0  0
 60123  1  0  0  0  0
 60124  1  0  0  0  0
 61125  1  0  0  0  0
 62126  1  0  0  0  0
 63127  1  0  0  0  0
 63128  1  0  0  0  0
 64 65  1  0  0  0  0
 64 69  1  0  0  0  0
 64129  1  0  0  0  0
 65 66  1  0  0  0  0
 65 68  1  0  0  0  0
 65130  1  0  0  0  0
 66 67  1  0  0  0  0
 66131  1  0  0  0  0
 67132  1  0  0  0  0
 68133  1  0  0  0  0
 69134  1  0  0  0  0
 69135  1  0  0  0  0
M  END
$$$$
Target_lig_768
 OpenBabel04172506213D

130137  0  0  1  0  0  0  0  0999 V2000
    2.1464    1.4923   -7.3055 N   0  0  0  0  0  0  0  0  0  0  0  0
    3.4853    1.1308   -6.8253 C   0  0  0  0  0  0  0  0  0  0  0  0
    3.5113    0.4534   -5.4272 C   0  0  3  0  0  0  0  0  0  0  0  0
    3.0775    1.2860   -4.3454 O   0  0  0  0  0  0  0  0  0  0  0  0
    3.9451    2.3060   -3.8712 C   0  0  3  0  0  0  0  0  0  0  0  0
    3.4631    2.8698   -2.6292 O   0  0  0  0  0  0  0  0  0  0  0  0
    2.2001    3.5253   -2.7470 C   0  0  3  0  0  0  0  0  0  0  0  0
    1.8211    4.2166   -1.4436 C   0  0  3  0  0  0  0  0  0  0  0  0
    2.1572    5.7299   -1.3040 C   0  0  0  0  0  0  0  0  0  0  0  0
    1.6206    6.2980   -0.0671 N   0  0  0  0  0  0  0  0  0  0  0  0
    1.6884    7.6132    0.2263 N   0  0  0  0  0  0  0  0  0  0  0  0
    0.9175    7.8237    1.3026 N   0  0  0  0  0  0  0  0  0  0  0  0
    0.3669    6.6242    1.6738 C   0  0  0  0  0  0  0  0  0  0  0  0
    0.8596    5.6541    0.8509 C   0  0  0  0  0  0  0  0  0  0  0  0
   -0.5974    6.3410    2.7204 C   0  0  0  0  0  0  0  0  0  0  0  0
   -1.1034    7.3498    3.5410 C   0  0  0  0  0  0  0  0  0  0  0  0
   -2.0209    7.0307    4.5522 C   0  0  0  0  0  0  0  0  0  0  0  0
   -2.4299    5.7035    4.7519 C   0  0  0  0  0  0  0  0  0  0  0  0
   -1.9660    4.6982    3.9078 C   0  0  0  0  0  0  0  0  0  0  0  0
   -1.0589    5.0205    2.9077 C   0  0  0  0  0  0  0  0  0  0  0  0
   -3.4002    5.3915    5.8237 C   0  0  0  0  0  0  0  0  0  0  0  0
   -4.1928    6.2707    6.1388 O   0  0  0  0  0  0  0  0  0  0  0  0
   -3.2860    4.1293    6.3891 N   0  0  0  0  0  0  0  0  0  0  0  0
   -4.1546    3.5810    7.3550 C   0  0  0  0  0  0  0  0  0  0  0  0
   -5.3958    4.1671    7.6619 C   0  0  0  0  0  0  0  0  0  0  0  0
   -6.1958    3.6178    8.6580 C   0  0  0  0  0  0  0  0  0  0  0  0
   -5.7762    2.4708    9.3324 C   0  0  0  0  0  0  0  0  0  0  0  0
   -4.5658    1.8549    9.0282 C   0  0  0  0  0  0  0  0  0  0  0  0
   -3.7602    2.4087    8.0177 C   0  0  0  0  0  0  0  0  0  0  0  0
   -4.1363    0.6597    9.7446 C   0  0  0  0  0  0  0  0  0  0  0  0
   -4.5690    0.3360   11.0189 C   0  0  0  0  0  0  0  0  0  0  0  0
   -3.9435   -1.1852   11.4884 S   0  0  0  0  0  0  0  0  0  0  0  0
   -3.0729   -1.2476   10.0218 C   0  0  0  0  0  0  0  0  0  0  0  0
   -3.2400   -0.2462    9.1953 N   0  0  0  0  0  0  0  0  0  0  0  0
   -2.2983   -2.3669    9.9162 N   0  0  0  0  0  0  0  0  0  0  0  0
   -1.4178   -2.5661    8.8834 C   0  0  0  0  0  0  0  0  0  0  0  0
   -1.1842   -1.7953    7.9594 O   0  0  0  0  0  0  0  0  0  0  0  0
   -0.6858   -3.8849    8.9900 C   0  0  0  0  0  0  0  0  0  0  0  0
    0.4055    4.0541   -1.3037 O   0  0  0  0  0  0  0  0  0  0  0  0
   -0.1666    3.2429   -2.3134 C   0  0  3  0  0  0  0  0  0  0  0  0
    1.0114    2.5805   -3.0111 C   0  0  3  0  0  0  0  0  0  0  0  0
    1.2160    1.3133   -2.3406 O   0  0  0  0  0  0  0  0  0  0  0  0
   -1.0990    4.0003   -3.0852 O   0  0  0  0  0  0  0  0  0  0  0  0
   -2.0164    4.6923   -2.1941 C   0  0  3  0  0  0  0  0  0  0  0  0
   -2.9981    3.7496   -1.4668 C   0  0  3  0  0  0  0  0  0  0  0  0
   -3.4577    4.4206   -0.2817 O   0  0  0  0  0  0  0  0  0  0  0  0
   -4.1604    3.3163   -2.3794 C   0  0  3  0  0  0  0  0  0  0  0  0
   -5.0400    2.3635   -1.6802 N   0  0  0  0  0  0  0  0  0  0  0  0
   -4.9405    4.5405   -2.8748 C   0  0  0  0  0  0  0  0  0  0  0  0
   -4.0133    5.5004   -3.6680 C   0  0  3  0  0  0  0  0  0  0  0  0
   -2.7344    5.8819   -2.8598 C   0  0  3  0  0  0  0  0  0  0  0  0
   -1.7369    6.7633   -3.4208 O   0  0  0  0  0  0  0  0  0  0  0  0
   -1.5169    6.8227   -4.8271 C   0  0  3  0  0  0  0  0  0  0  0  0
   -0.6327    5.8272   -5.3657 O   0  0  0  0  0  0  0  0  0  0  0  0
    0.7466    5.9260   -4.9690 C   0  0  3  0  0  0  0  0  0  0  0  0
    1.5629    4.8779   -5.7828 C   0  0  0  0  0  0  0  0  0  0  0  0
    3.0245    4.9882   -5.6182 N   0  0  0  0  0  0  0  0  0  0  0  0
    1.3581    7.3103   -5.2125 C   0  0  3  0  0  0  0  0  0  0  0  0
    0.4717    8.4058   -4.6564 C   0  0  3  0  0  0  0  0  0  0  0  0
   -0.9702    8.2472   -5.1571 C   0  0  3  0  0  0  0  0  0  0  0  0
   -1.7579    9.3742   -4.5919 N   0  0  0  0  0  0  0  0  0  0  0  0
    1.0026    9.6768   -5.0558 O   0  0  0  0  0  0  0  0  0  0  0  0
    1.6081    7.4824   -6.6198 O   0  0  0  0  0  0  0  0  0  0  0  0
   -4.7780    6.7177   -4.0263 N   0  0  0  0  0  0  0  0  0  0  0  0
    5.3836    1.8047   -3.5930 C   0  0  3  0  0  0  0  0  0  0  0  0
    5.8766    0.9747   -4.7811 C   0  0  3  0  0  0  0  0  0  0  0  0
    4.8901   -0.1477   -5.1238 C   0  0  3  0  0  0  0  0  0  0  0  0
    5.3678   -0.9084   -6.2384 O   0  0  0  0  0  0  0  0  0  0  0  0
    7.1631    0.4082   -4.4991 O   0  0  0  0  0  0  0  0  0  0  0  0
    5.5119    1.0372   -2.3177 N   0  0  0  0  0  0  0  0  0  0  0  0
    2.2105    1.7330   -8.2954 H   0  0  0  0  0  0  0  0  0  0  0  0
    1.8540    2.3468   -6.8353 H   0  0  0  0  0  0  0  0  0  0  0  0
    4.1106    2.0294   -6.8339 H   0  0  0  0  0  0  0  0  0  0  0  0
    3.8959    0.4409   -7.5693 H   0  0  0  0  0  0  0  0  0  0  0  0
    2.7908   -0.3737   -5.4741 H   0  0  0  0  0  0  0  0  0  0  0  0
    4.0150    3.0913   -4.6173 H   0  0  0  0  0  0  0  0  0  0  0  0
    2.2935    4.3003   -3.4878 H   0  0  0  0  0  0  0  0  0  0  0  0
    2.2795    3.6884   -0.6009 H   0  0  0  0  0  0  0  0  0  0  0  0
    1.7017    6.3242   -2.1022 H   0  0  0  0  0  0  0  0  0  0  0  0
    3.2371    5.9075   -1.3021 H   0  0  0  0  0  0  0  0  0  0  0  0
    0.6450    4.6036    0.8001 H   0  0  0  0  0  0  0  0  0  0  0  0
   -0.7947    8.3806    3.3969 H   0  0  0  0  0  0  0  0  0  0  0  0
   -2.4145    7.8248    5.1845 H   0  0  0  0  0  0  0  0  0  0  0  0
   -2.3133    3.6735    3.9921 H   0  0  0  0  0  0  0  0  0  0  0  0
   -0.7350    4.2028    2.2712 H   0  0  0  0  0  0  0  0  0  0  0  0
   -2.4567    3.5879    6.1810 H   0  0  0  0  0  0  0  0  0  0  0  0
   -5.7535    5.0402    7.1395 H   0  0  0  0  0  0  0  0  0  0  0  0
   -7.1487    4.0924    8.8900 H   0  0  0  0  0  0  0  0  0  0  0  0
   -6.4569    2.0767   10.0990 H   0  0  0  0  0  0  0  0  0  0  0  0
   -2.8176    1.9223    7.7646 H   0  0  0  0  0  0  0  0  0  0  0  0
   -5.2203    0.8882   11.6800 H   0  0  0  0  0  0  0  0  0  0  0  0
   -2.3784   -3.0365   10.6658 H   0  0  0  0  0  0  0  0  0  0  0  0
   -1.0708   -4.5054    9.8057 H   0  0  0  0  0  0  0  0  0  0  0  0
    0.3757   -3.6947    9.1695 H   0  0  0  0  0  0  0  0  0  0  0  0
   -0.8081   -4.4364    8.0540 H   0  0  0  0  0  0  0  0  0  0  0  0
   -0.7254    2.4535   -1.8113 H   0  0  0  0  0  0  0  0  0  0  0  0
    0.8239    2.3730   -4.0658 H   0  0  0  0  0  0  0  0  0  0  0  0
    1.3507    1.4949   -1.3951 H   0  0  0  0  0  0  0  0  0  0  0  0
   -1.4157    5.1963   -1.4285 H   0  0  0  0  0  0  0  0  0  0  0  0
   -2.5011    2.8433   -1.1157 H   0  0  0  0  0  0  0  0  0  0  0  0
   -4.4053    4.2627   -0.1610 H   0  0  0  0  0  0  0  0  0  0  0  0
   -3.7629    2.7908   -3.2558 H   0  0  0  0  0  0  0  0  0  0  0  0
   -5.1830    2.6126   -0.7028 H   0  0  0  0  0  0  0  0  0  0  0  0
   -4.5717    1.4545   -1.6323 H   0  0  0  0  0  0  0  0  0  0  0  0
   -5.3994    5.0633   -2.0231 H   0  0  0  0  0  0  0  0  0  0  0  0
   -5.7735    4.2173   -3.5143 H   0  0  0  0  0  0  0  0  0  0  0  0
   -3.7203    5.0113   -4.6015 H   0  0  0  0  0  0  0  0  0  0  0  0
   -3.1252    6.4672   -2.0116 H   0  0  0  0  0  0  0  0  0  0  0  0
   -2.4632    6.7120   -5.3584 H   0  0  0  0  0  0  0  0  0  0  0  0
    0.7816    5.7032   -3.9038 H   0  0  0  0  0  0  0  0  0  0  0  0
    1.3188    4.9506   -6.8472 H   0  0  0  0  0  0  0  0  0  0  0  0
    1.2343    3.8781   -5.4935 H   0  0  0  0  0  0  0  0  0  0  0  0
    3.3078    5.9554   -5.8070 H   0  0  0  0  0  0  0  0  0  0  0  0
    3.5125    4.4897   -6.3580 H   0  0  0  0  0  0  0  0  0  0  0  0
    2.3370    7.3878   -4.7210 H   0  0  0  0  0  0  0  0  0  0  0  0
    0.5095    8.3716   -3.5587 H   0  0  0  0  0  0  0  0  0  0  0  0
   -0.9663    8.3688   -6.2467 H   0  0  0  0  0  0  0  0  0  0  0  0
   -1.8637    9.1661   -3.5887 H   0  0  0  0  0  0  0  0  0  0  0  0
   -2.7116    9.2964   -4.9444 H   0  0  0  0  0  0  0  0  0  0  0  0
    0.2259   10.2718   -5.0839 H   0  0  0  0  0  0  0  0  0  0  0  0
    0.7917    7.2512   -7.0944 H   0  0  0  0  0  0  0  0  0  0  0  0
   -5.3119    7.0405   -3.2153 H   0  0  0  0  0  0  0  0  0  0  0  0
   -5.4830    6.4885   -4.7286 H   0  0  0  0  0  0  0  0  0  0  0  0
    6.0423    2.6733   -3.4630 H   0  0  0  0  0  0  0  0  0  0  0  0
    6.0234    1.6218   -5.6528 H   0  0  0  0  0  0  0  0  0  0  0  0
    4.8130   -0.8377   -4.2744 H   0  0  0  0  0  0  0  0  0  0  0  0
    6.3310   -0.7561   -6.2871 H   0  0  0  0  0  0  0  0  0  0  0  0
    7.1741    0.2882   -3.5244 H   0  0  0  0  0  0  0  0  0  0  0  0
    4.7377    0.3637   -2.2831 H   0  0  0  0  0  0  0  0  0  0  0  0
    5.2541    1.6935   -1.5728 H   0  0  0  0  0  0  0  0  0  0  0  0
  1  2  1  0  0  0  0
  1 71  1  0  0  0  0
  1 72  1  0  0  0  0
  2  3  1  0  0  0  0
  2 73  1  0  0  0  0
  2 74  1  0  0  0  0
  3  4  1  0  0  0  0
  3 67  1  0  0  0  0
  3 75  1  0  0  0  0
  4  5  1  0  0  0  0
  5  6  1  0  0  0  0
  5 65  1  0  0  0  0
  5 76  1  0  0  0  0
  6  7  1  0  0  0  0
  7  8  1  0  0  0  0
  7 41  1  0  0  0  0
  7 77  1  0  0  0  0
  8  9  1  0  0  0  0
  8 39  1  0  0  0  0
  8 78  1  0  0  0  0
  9 10  1  0  0  0  0
  9 79  1  0  0  0  0
  9 80  1  0  0  0  0
 10 11  1  0  0  0  0
 10 14  1  0  0  0  0
 11 12  2  0  0  0  0
 12 13  1  0  0  0  0
 13 14  2  0  0  0  0
 13 15  1  0  0  0  0
 14 81  1  0  0  0  0
 15 16  1  0  0  0  0
 15 20  2  0  0  0  0
 16 17  2  0  0  0  0
 16 82  1  0  0  0  0
 17 18  1  0  0  0  0
 17 83  1  0  0  0  0
 18 19  2  0  0  0  0
 18 21  1  0  0  0  0
 19 20  1  0  0  0  0
 19 84  1  0  0  0  0
 20 85  1  0  0  0  0
 21 22  2  0  0  0  0
 21 23  1  0  0  0  0
 23 24  1  0  0  0  0
 23 86  1  0  0  0  0
 24 25  1  0  0  0  0
 24 29  2  0  0  0  0
 25 26  2  0  0  0  0
 25 87  1  0  0  0  0
 26 27  1  0  0  0  0
 26 88  1  0  0  0  0
 27 28  2  0  0  0  0
 27 89  1  0  0  0  0
 28 29  1  0  0  0  0
 28 30  1  0  0  0  0
 29 90  1  0  0  0  0
 30 31  2  0  0  0  0
 30 34  1  0  0  0  0
 31 32  1  0  0  0  0
 31 91  1  0  0  0  0
 32 33  1  0  0  0  0
 33 34  2  0  0  0  0
 33 35  1  0  0  0  0
 35 36  1  0  0  0  0
 35 92  1  0  0  0  0
 36 37  2  0  0  0  0
 36 38  1  0  0  0  0
 38 93  1  0  0  0  0
 38 94  1  0  0  0  0
 38 95  1  0  0  0  0
 39 40  1  0  0  0  0
 40 41  1  0  0  0  0
 40 43  1  0  0  0  0
 40 96  1  0  0  0  0
 41 42  1  0  0  0  0
 41 97  1  0  0  0  0
 42 98  1  0  0  0  0
 43 44  1  0  0  0  0
 44 45  1  0  0  0  0
 44 51  1  0  0  0  0
 44 99  1  0  0  0  0
 45 46  1  0  0  0  0
 45 47  1  0  0  0  0
 45100  1  0  0  0  0
 46101  1  0  0  0  0
 47 48  1  0  0  0  0
 47 49  1  0  0  0  0
 47102  1  0  0  0  0
 48103  1  0  0  0  0
 48104  1  0  0  0  0
 49 50  1  0  0  0  0
 49105  1  0  0  0  0
 49106  1  0  0  0  0
 50 51  1  0  0  0  0
 50 64  1  0  0  0  0
 50107  1  0  0  0  0
 51 52  1  0  0  0  0
 51108  1  0  0  0  0
 52 53  1  0  0  0  0
 53 54  1  0  0  0  0
 53 60  1  0  0  0  0
 53109  1  0  0  0  0
 54 55  1  0  0  0  0
 55 56  1  0  0  0  0
 55 58  1  0  0  0  0
 55110  1  0  0  0  0
 56 57  1  0  0  0  0
 56111  1  0  0  0  0
 56112  1  0  0  0  0
 57113  1  0  0  0  0
 57114  1  0  0  0  0
 58 59  1  0  0  0  0
 58 63  1  0  0  0  0
 58115  1  0  0  0  0
 59 60  1  0  0  0  0
 59 62  1  0  0  0  0
 59116  1  0  0  0  0
 60 61  1  0  0  0  0
 60117  1  0  0  0  0
 61118  1  0  0  0  0
 61119  1  0  0  0  0
 62120  1  0  0  0  0
 63121  1  0  0  0  0
 64122  1  0  0  0  0
 64123  1  0  0  0  0
 65 66  1  0  0  0  0
 65 70  1  0  0  0  0
 65124  1  0  0  0  0
 66 67  1  0  0  0  0
 66 69  1  0  0  0  0
 66125  1  0  0  0  0
 67 68  1  0  0  0  0
 67126  1  0  0  0  0
 68127  1  0  0  0  0
 69128  1  0  0  0  0
 70129  1  0  0  0  0
 70130  1  0  0  0  0
M  END
$$$$
Target_lig_769
 OpenBabel04172506213D

130137  0  0  1  0  0  0  0  0999 V2000
    1.9932   -2.4418   -6.7492 N   0  0  0  0  0  0  0  0  0  0  0  0
    0.8357   -3.2829   -7.0817 C   0  0  0  0  0  0  0  0  0  0  0  0
    0.3183   -4.2176   -5.9560 C   0  0  3  0  0  0  0  0  0  0  0  0
   -0.2745   -3.5224   -4.8381 O   0  0  0  0  0  0  0  0  0  0  0  0
    0.6344   -3.0048   -3.8642 C   0  0  3  0  0  0  0  0  0  0  0  0
   -0.0945   -2.4720   -2.7167 O   0  0  0  0  0  0  0  0  0  0  0  0
   -0.8114   -1.2589   -2.9976 C   0  0  3  0  0  0  0  0  0  0  0  0
    0.1644   -0.1604   -3.3796 C   0  0  3  0  0  0  0  0  0  0  0  0
   -0.1957    0.2480   -4.7932 C   0  0  0  0  0  0  0  0  0  0  0  0
    0.8207    1.1047   -5.3161 N   0  0  0  0  0  0  0  0  0  0  0  0
    1.3454    2.0954   -4.5869 N   0  0  0  0  0  0  0  0  0  0  0  0
    2.4069    2.5207   -5.2341 N   0  0  0  0  0  0  0  0  0  0  0  0
    2.4884    1.7974   -6.3850 C   0  0  0  0  0  0  0  0  0  0  0  0
    1.3921    0.9941   -6.5279 C   0  0  0  0  0  0  0  0  0  0  0  0
    3.5671    1.8859   -7.3039 C   0  0  0  0  0  0  0  0  0  0  0  0
    3.5574    1.1460   -8.4920 C   0  0  0  0  0  0  0  0  0  0  0  0
    4.4370    1.4875   -9.4962 C   0  0  0  0  0  0  0  0  0  0  0  0
    5.2611    2.5929   -9.2803 C   0  0  0  0  0  0  0  0  0  0  0  0
    5.5289    3.0448   -7.9871 C   0  0  0  0  0  0  0  0  0  0  0  0
    4.6072    2.7628   -7.0091 C   0  0  0  0  0  0  0  0  0  0  0  0
    5.3305    3.6862  -10.2897 C   0  0  0  0  0  0  0  0  0  0  0  0
    6.0308    4.6566  -10.0228 O   0  0  0  0  0  0  0  0  0  0  0  0
    4.4513    3.5806  -11.3529 N   0  0  0  0  0  0  0  0  0  0  0  0
    4.2007    4.5704  -12.3184 C   0  0  0  0  0  0  0  0  0  0  0  0
    4.8274    5.8219  -12.3289 C   0  0  0  0  0  0  0  0  0  0  0  0
    4.6051    6.7117  -13.3699 C   0  0  0  0  0  0  0  0  0  0  0  0
    3.7453    6.3618  -14.4014 C   0  0  0  0  0  0  0  0  0  0  0  0
    3.0677    5.1420  -14.3852 C   0  0  0  0  0  0  0  0  0  0  0  0
    3.2978    4.2416  -13.3363 C   0  0  0  0  0  0  0  0  0  0  0  0
    2.1858    4.7992  -15.4873 C   0  0  0  0  0  0  0  0  0  0  0  0
    1.0367    4.0418  -15.3628 C   0  0  0  0  0  0  0  0  0  0  0  0
    0.2769    3.8881  -16.8922 S   0  0  0  0  0  0  0  0  0  0  0  0
    1.5498    4.7883  -17.5857 C   0  0  0  0  0  0  0  0  0  0  0  0
    2.4625    5.2330  -16.7694 N   0  0  0  0  0  0  0  0  0  0  0  0
    1.4400    4.9444  -18.9382 N   0  0  0  0  0  0  0  0  0  0  0  0
    2.4435    5.5042  -19.6936 C   0  0  0  0  0  0  0  0  0  0  0  0
    3.5513    5.8631  -19.3105 O   0  0  0  0  0  0  0  0  0  0  0  0
    2.0682    5.5971  -21.1525 C   0  0  0  0  0  0  0  0  0  0  0  0
    0.0161    0.9314   -2.4560 O   0  0  0  0  0  0  0  0  0  0  0  0
   -1.3304    0.9312   -2.0174 C   0  0  3  0  0  0  0  0  0  0  0  0
   -1.5970   -0.5965   -1.8402 C   0  0  3  0  0  0  0  0  0  0  0  0
   -1.1120   -1.0424   -0.5665 O   0  0  0  0  0  0  0  0  0  0  0  0
   -2.1707    1.5813   -2.9808 O   0  0  0  0  0  0  0  0  0  0  0  0
   -1.8364    2.9704   -3.3266 C   0  0  3  0  0  0  0  0  0  0  0  0
   -1.8580    3.9512   -2.1308 C   0  0  3  0  0  0  0  0  0  0  0  0
   -1.4772    5.2725   -2.5520 O   0  0  0  0  0  0  0  0  0  0  0  0
   -3.2416    3.9757   -1.4448 C   0  0  3  0  0  0  0  0  0  0  0  0
   -3.3043    5.0403   -0.4272 N   0  0  0  0  0  0  0  0  0  0  0  0
   -4.4075    4.1445   -2.4369 C   0  0  0  0  0  0  0  0  0  0  0  0
   -4.2752    3.2872   -3.7105 C   0  0  3  0  0  0  0  0  0  0  0  0
   -2.8754    3.5080   -4.3812 C   0  0  3  0  0  0  0  0  0  0  0  0
   -2.8422    2.8962   -5.6985 O   0  0  0  0  0  0  0  0  0  0  0  0
   -1.6162    3.0997   -6.4336 C   0  0  3  0  0  0  0  0  0  0  0  0
   -1.2350    4.4328   -6.7272 O   0  0  0  0  0  0  0  0  0  0  0  0
   -1.8907    5.0949   -7.8158 C   0  0  3  0  0  0  0  0  0  0  0  0
   -1.0717    6.3823   -8.0824 C   0  0  0  0  0  0  0  0  0  0  0  0
   -1.6645    7.2474   -9.1025 N   0  0  0  0  0  0  0  0  0  0  0  0
   -2.0523    4.2420   -9.0983 C   0  0  3  0  0  0  0  0  0  0  0  0
   -2.5177    2.8315   -8.7608 C   0  0  3  0  0  0  0  0  0  0  0  0
   -1.5966    2.2186   -7.7116 C   0  0  3  0  0  0  0  0  0  0  0  0
   -2.0344    0.8165   -7.5610 N   0  0  0  0  0  0  0  0  0  0  0  0
   -2.5062    1.9847   -9.9252 O   0  0  0  0  0  0  0  0  0  0  0  0
   -0.8513    4.2213   -9.8774 O   0  0  0  0  0  0  0  0  0  0  0  0
   -5.4218    3.5809   -4.5845 N   0  0  0  0  0  0  0  0  0  0  0  0
    1.6131   -4.0828   -3.3358 C   0  0  3  0  0  0  0  0  0  0  0  0
    2.3162   -4.7727   -4.5020 C   0  0  3  0  0  0  0  0  0  0  0  0
    1.3197   -5.3004   -5.5335 C   0  0  3  0  0  0  0  0  0  0  0  0
    2.0302   -5.8279   -6.6628 O   0  0  0  0  0  0  0  0  0  0  0  0
    3.0877   -5.8783   -4.0161 O   0  0  0  0  0  0  0  0  0  0  0  0
    0.9361   -5.0881   -2.4679 N   0  0  0  0  0  0  0  0  0  0  0  0
    2.2661   -1.9430   -7.5978 H   0  0  0  0  0  0  0  0  0  0  0  0
    2.7992   -3.0545   -6.5944 H   0  0  0  0  0  0  0  0  0  0  0  0
    1.1009   -3.8863   -7.9595 H   0  0  0  0  0  0  0  0  0  0  0  0
    0.0232   -2.6172   -7.3899 H   0  0  0  0  0  0  0  0  0  0  0  0
   -0.5235   -4.7477   -6.4216 H   0  0  0  0  0  0  0  0  0  0  0  0
    1.2395   -2.2214   -4.3234 H   0  0  0  0  0  0  0  0  0  0  0  0
   -1.5278   -1.4849   -3.7988 H   0  0  0  0  0  0  0  0  0  0  0  0
    1.2144   -0.4616   -3.3183 H   0  0  0  0  0  0  0  0  0  0  0  0
   -1.1497    0.7667   -4.8734 H   0  0  0  0  0  0  0  0  0  0  0  0
   -0.2544   -0.6236   -5.4551 H   0  0  0  0  0  0  0  0  0  0  0  0
    1.0496    0.3139   -7.2906 H   0  0  0  0  0  0  0  0  0  0  0  0
    2.8009    0.3938   -8.6913 H   0  0  0  0  0  0  0  0  0  0  0  0
    4.3435    1.0081  -10.4643 H   0  0  0  0  0  0  0  0  0  0  0  0
    6.2828    3.8046   -7.7989 H   0  0  0  0  0  0  0  0  0  0  0  0
    4.6375    3.3220   -6.0745 H   0  0  0  0  0  0  0  0  0  0  0  0
    3.8795    2.7512  -11.4349 H   0  0  0  0  0  0  0  0  0  0  0  0
    5.5028    6.1242  -11.5342 H   0  0  0  0  0  0  0  0  0  0  0  0
    5.1320    7.6651  -13.3709 H   0  0  0  0  0  0  0  0  0  0  0  0
    3.6153    7.0621  -15.2384 H   0  0  0  0  0  0  0  0  0  0  0  0
    2.8050    3.2823  -13.3384 H   0  0  0  0  0  0  0  0  0  0  0  0
    0.6068    3.5923  -14.4840 H   0  0  0  0  0  0  0  0  0  0  0  0
    0.6144    4.5606  -19.3681 H   0  0  0  0  0  0  0  0  0  0  0  0
    0.9912    5.4803  -21.3060 H   0  0  0  0  0  0  0  0  0  0  0  0
    2.5924    4.8144  -21.7079 H   0  0  0  0  0  0  0  0  0  0  0  0
    2.3593    6.5798  -21.5322 H   0  0  0  0  0  0  0  0  0  0  0  0
   -1.3945    1.4460   -1.0553 H   0  0  0  0  0  0  0  0  0  0  0  0
   -2.6637   -0.8295   -1.8993 H   0  0  0  0  0  0  0  0  0  0  0  0
   -0.2327   -0.6458   -0.4197 H   0  0  0  0  0  0  0  0  0  0  0  0
   -0.8405    2.9947   -3.7629 H   0  0  0  0  0  0  0  0  0  0  0  0
   -1.0997    3.6509   -1.3998 H   0  0  0  0  0  0  0  0  0  0  0  0
   -2.2722    5.7909   -2.7692 H   0  0  0  0  0  0  0  0  0  0  0  0
   -3.3709    3.0186   -0.9260 H   0  0  0  0  0  0  0  0  0  0  0  0
   -3.5202    5.9426   -0.8543 H   0  0  0  0  0  0  0  0  0  0  0  0
   -2.3735    5.1692   -0.0217 H   0  0  0  0  0  0  0  0  0  0  0  0
   -4.4924    5.1991   -2.7345 H   0  0  0  0  0  0  0  0  0  0  0  0
   -5.3443    3.8951   -1.9202 H   0  0  0  0  0  0  0  0  0  0  0  0
   -4.3728    2.2275   -3.4472 H   0  0  0  0  0  0  0  0  0  0  0  0
   -2.7350    4.5816   -4.5562 H   0  0  0  0  0  0  0  0  0  0  0  0
   -0.8251    2.7451   -5.7970 H   0  0  0  0  0  0  0  0  0  0  0  0
   -2.8864    5.3683   -7.4515 H   0  0  0  0  0  0  0  0  0  0  0  0
   -0.0432    6.1284   -8.3771 H   0  0  0  0  0  0  0  0  0  0  0  0
   -0.9677    6.9455   -7.1479 H   0  0  0  0  0  0  0  0  0  0  0  0
   -1.5821    6.7614  -10.0003 H   0  0  0  0  0  0  0  0  0  0  0  0
   -1.0769    8.0752   -9.2002 H   0  0  0  0  0  0  0  0  0  0  0  0
   -2.7977    4.7088   -9.7505 H   0  0  0  0  0  0  0  0  0  0  0  0
   -3.5499    2.8627   -8.3929 H   0  0  0  0  0  0  0  0  0  0  0  0
   -0.5782    2.1893   -8.1147 H   0  0  0  0  0  0  0  0  0  0  0  0
   -2.7001    0.7929   -6.7781 H   0  0  0  0  0  0  0  0  0  0  0  0
   -1.2585    0.2241   -7.2798 H   0  0  0  0  0  0  0  0  0  0  0  0
   -2.5029    1.0740   -9.5589 H   0  0  0  0  0  0  0  0  0  0  0  0
   -0.2777    3.4819   -9.6276 H   0  0  0  0  0  0  0  0  0  0  0  0
   -5.1135    3.4421   -5.5499 H   0  0  0  0  0  0  0  0  0  0  0  0
   -6.1212    2.8495   -4.4397 H   0  0  0  0  0  0  0  0  0  0  0  0
    2.3669   -3.6089   -2.6944 H   0  0  0  0  0  0  0  0  0  0  0  0
    3.0471   -4.1018   -4.9574 H   0  0  0  0  0  0  0  0  0  0  0  0
    0.7689   -6.1424   -5.0942 H   0  0  0  0  0  0  0  0  0  0  0  0
    2.8501   -6.2112   -6.2881 H   0  0  0  0  0  0  0  0  0  0  0  0
    2.6387   -6.1121   -3.1737 H   0  0  0  0  0  0  0  0  0  0  0  0
    0.0799   -5.3888   -2.9442 H   0  0  0  0  0  0  0  0  0  0  0  0
    0.5552   -4.5512   -1.6766 H   0  0  0  0  0  0  0  0  0  0  0  0
  1  2  1  0  0  0  0
  1 71  1  0  0  0  0
  1 72  1  0  0  0  0
  2  3  1  0  0  0  0
  2 73  1  0  0  0  0
  2 74  1  0  0  0  0
  3  4  1  0  0  0  0
  3 67  1  0  0  0  0
  3 75  1  0  0  0  0
  4  5  1  0  0  0  0
  5  6  1  0  0  0  0
  5 65  1  0  0  0  0
  5 76  1  0  0  0  0
  6  7  1  0  0  0  0
  7  8  1  0  0  0  0
  7 41  1  0  0  0  0
  7 77  1  0  0  0  0
  8  9  1  0  0  0  0
  8 39  1  0  0  0  0
  8 78  1  0  0  0  0
  9 10  1  0  0  0  0
  9 79  1  0  0  0  0
  9 80  1  0  0  0  0
 10 11  1  0  0  0  0
 10 14  1  0  0  0  0
 11 12  2  0  0  0  0
 12 13  1  0  0  0  0
 13 14  2  0  0  0  0
 13 15  1  0  0  0  0
 14 81  1  0  0  0  0
 15 16  1  0  0  0  0
 15 20  2  0  0  0  0
 16 17  2  0  0  0  0
 16 82  1  0  0  0  0
 17 18  1  0  0  0  0
 17 83  1  0  0  0  0
 18 19  2  0  0  0  0
 18 84  1  0  0  0  0
 19 20  1  0  0  0  0
 19 21  1  0  0  0  0
 20 85  1  0  0  0  0
 21 22  2  0  0  0  0
 21 23  1  0  0  0  0
 23 24  1  0  0  0  0
 23 86  1  0  0  0  0
 24 25  1  0  0  0  0
 24 29  2  0  0  0  0
 25 26  2  0  0  0  0
 25 87  1  0  0  0  0
 26 27  1  0  0  0  0
 26 88  1  0  0  0  0
 27 28  2  0  0  0  0
 27 89  1  0  0  0  0
 28 29  1  0  0  0  0
 28 30  1  0  0  0  0
 29 90  1  0  0  0  0
 30 31  2  0  0  0  0
 30 34  1  0  0  0  0
 31 32  1  0  0  0  0
 31 91  1  0  0  0  0
 32 33  1  0  0  0  0
 33 34  2  0  0  0  0
 33 35  1  0  0  0  0
 35 36  1  0  0  0  0
 35 92  1  0  0  0  0
 36 37  2  0  0  0  0
 36 38  1  0  0  0  0
 38 93  1  0  0  0  0
 38 94  1  0  0  0  0
 38 95  1  0  0  0  0
 39 40  1  0  0  0  0
 40 41  1  0  0  0  0
 40 43  1  0  0  0  0
 40 96  1  0  0  0  0
 41 42  1  0  0  0  0
 41 97  1  0  0  0  0
 42 98  1  0  0  0  0
 43 44  1  0  0  0  0
 44 45  1  0  0  0  0
 44 51  1  0  0  0  0
 44 99  1  0  0  0  0
 45 46  1  0  0  0  0
 45 47  1  0  0  0  0
 45100  1  0  0  0  0
 46101  1  0  0  0  0
 47 48  1  0  0  0  0
 47 49  1  0  0  0  0
 47102  1  0  0  0  0
 48103  1  0  0  0  0
 48104  1  0  0  0  0
 49 50  1  0  0  0  0
 49105  1  0  0  0  0
 49106  1  0  0  0  0
 50 51  1  0  0  0  0
 50 64  1  0  0  0  0
 50107  1  0  0  0  0
 51 52  1  0  0  0  0
 51108  1  0  0  0  0
 52 53  1  0  0  0  0
 53 54  1  0  0  0  0
 53 60  1  0  0  0  0
 53109  1  0  0  0  0
 54 55  1  0  0  0  0
 55 56  1  0  0  0  0
 55 58  1  0  0  0  0
 55110  1  0  0  0  0
 56 57  1  0  0  0  0
 56111  1  0  0  0  0
 56112  1  0  0  0  0
 57113  1  0  0  0  0
 57114  1  0  0  0  0
 58 59  1  0  0  0  0
 58 63  1  0  0  0  0
 58115  1  0  0  0  0
 59 60  1  0  0  0  0
 59 62  1  0  0  0  0
 59116  1  0  0  0  0
 60 61  1  0  0  0  0
 60117  1  0  0  0  0
 61118  1  0  0  0  0
 61119  1  0  0  0  0
 62120  1  0  0  0  0
 63121  1  0  0  0  0
 64122  1  0  0  0  0
 64123  1  0  0  0  0
 65 66  1  0  0  0  0
 65 70  1  0  0  0  0
 65124  1  0  0  0  0
 66 67  1  0  0  0  0
 66 69  1  0  0  0  0
 66125  1  0  0  0  0
 67 68  1  0  0  0  0
 67126  1  0  0  0  0
 68127  1  0  0  0  0
 69128  1  0  0  0  0
 70129  1  0  0  0  0
 70130  1  0  0  0  0
M  END
$$$$
Target_lig_770
 OpenBabel04172506213D

131138  0  0  1  0  0  0  0  0999 V2000
   -1.8370    6.3412   -0.6836 N   0  0  0  0  0  0  0  0  0  0  0  0
   -2.1844    5.3209    0.3115 C   0  0  0  0  0  0  0  0  0  0  0  0
   -1.9489    3.8604   -0.1241 C   0  0  3  0  0  0  0  0  0  0  0  0
   -0.5765    3.5680   -0.3173 O   0  0  0  0  0  0  0  0  0  0  0  0
    0.0382    4.0302   -1.4992 C   0  0  3  0  0  0  0  0  0  0  0  0
    1.3966    3.5566   -1.4942 O   0  0  0  0  0  0  0  0  0  0  0  0
    2.1826    4.2882   -0.5520 C   0  0  3  0  0  0  0  0  0  0  0  0
    3.6534    3.9701   -0.7829 C   0  0  3  0  0  0  0  0  0  0  0  0
    4.5277    5.1643   -1.2127 C   0  0  0  0  0  0  0  0  0  0  0  0
    4.3098    6.4790   -0.6390 N   0  0  0  0  0  0  0  0  0  0  0  0
    4.9228    7.5430   -1.1980 N   0  0  0  0  0  0  0  0  0  0  0  0
    4.6798    8.6079   -0.4310 N   0  0  0  0  0  0  0  0  0  0  0  0
    3.7967    8.2203    0.5271 C   0  0  0  0  0  0  0  0  0  0  0  0
    3.4953    6.9061    0.3513 C   0  0  0  0  0  0  0  0  0  0  0  0
    3.1621    8.9159    1.4876 O   0  0  0  0  0  0  0  0  0  0  0  0
    3.7737    9.9577    2.1232 C   0  0  0  0  0  0  0  0  0  0  0  0
    2.9891   11.0537    2.4588 C   0  0  0  0  0  0  0  0  0  0  0  0
    3.5503   12.1318    3.1236 C   0  0  0  0  0  0  0  0  0  0  0  0
    4.9057   12.1035    3.4650 C   0  0  0  0  0  0  0  0  0  0  0  0
    5.6845   10.9658    3.1955 C   0  0  0  0  0  0  0  0  0  0  0  0
    5.1053    9.8838    2.5423 C   0  0  0  0  0  0  0  0  0  0  0  0
    5.5848   13.2271    4.1362 C   0  0  0  0  0  0  0  0  0  0  0  0
    6.5596   12.9702    4.8358 O   0  0  0  0  0  0  0  0  0  0  0  0
    5.0726   14.5012    3.9176 N   0  0  0  0  0  0  0  0  0  0  0  0
    5.6487   15.7124    4.3659 C   0  0  0  0  0  0  0  0  0  0  0  0
    6.9430   15.7876    4.8882 C   0  0  0  0  0  0  0  0  0  0  0  0
    7.4653   16.9994    5.3311 C   0  0  0  0  0  0  0  0  0  0  0  0
    6.7005   18.1573    5.2403 C   0  0  0  0  0  0  0  0  0  0  0  0
    5.4113   18.1174    4.6906 C   0  0  0  0  0  0  0  0  0  0  0  0
    4.8890   16.8861    4.2612 C   0  0  0  0  0  0  0  0  0  0  0  0
    4.6225   19.3358    4.5557 C   0  0  0  0  0  0  0  0  0  0  0  0
    5.1829   20.5753    4.3018 C   0  0  0  0  0  0  0  0  0  0  0  0
    3.9527   21.7567    4.1561 S   0  0  0  0  0  0  0  0  0  0  0  0
    2.7925   20.5537    4.5058 C   0  0  0  0  0  0  0  0  0  0  0  0
    3.2388   19.3333    4.6541 N   0  0  0  0  0  0  0  0  0  0  0  0
    1.5211   21.0474    4.5851 N   0  0  0  0  0  0  0  0  0  0  0  0
    0.4719   20.3173    5.0889 C   0  0  0  0  0  0  0  0  0  0  0  0
    0.5097   19.1802    5.5448 O   0  0  0  0  0  0  0  0  0  0  0  0
   -0.8257   21.0889    5.0736 C   0  0  0  0  0  0  0  0  0  0  0  0
    4.1603    3.3485    0.3987 O   0  0  0  0  0  0  0  0  0  0  0  0
    3.3500    3.7413    1.5097 C   0  0  3  0  0  0  0  0  0  0  0  0
    1.9473    3.9468    0.9365 C   0  0  3  0  0  0  0  0  0  0  0  0
    1.2710    2.6931    1.1369 O   0  0  0  0  0  0  0  0  0  0  0  0
    3.9647    4.8413    2.2024 O   0  0  0  0  0  0  0  0  0  0  0  0
    5.2635    4.4220    2.6830 C   0  0  3  0  0  0  0  0  0  0  0  0
    5.0649    3.5010    3.9186 C   0  0  3  0  0  0  0  0  0  0  0  0
    6.0587    2.4613    3.9246 O   0  0  0  0  0  0  0  0  0  0  0  0
    5.0122    4.2101    5.2777 C   0  0  3  0  0  0  0  0  0  0  0  0
    5.0842    3.1880    6.3575 N   0  0  0  0  0  0  0  0  0  0  0  0
    6.1521    5.2150    5.3986 C   0  0  0  0  0  0  0  0  0  0  0  0
    6.1625    6.2744    4.2511 C   0  0  3  0  0  0  0  0  0  0  0  0
    6.3438    5.5576    2.8661 C   0  0  3  0  0  0  0  0  0  0  0  0
    6.4928    6.3393    1.6431 O   0  0  0  0  0  0  0  0  0  0  0  0
    7.6294    7.2352    1.4809 C   0  0  3  0  0  0  0  0  0  0  0  0
    7.6116    7.9358    0.1952 O   0  0  0  0  0  0  0  0  0  0  0  0
    7.9734    7.1582   -0.9617 C   0  0  3  0  0  0  0  0  0  0  0  0
    7.9300    8.0314   -2.2549 C   0  0  0  0  0  0  0  0  0  0  0  0
    8.7569    9.2480   -2.2122 N   0  0  0  0  0  0  0  0  0  0  0  0
    9.3332    6.4609   -0.8022 C   0  0  3  0  0  0  0  0  0  0  0  0
    9.3515    5.6571    0.5033 C   0  0  3  0  0  0  0  0  0  0  0  0
    9.0799    6.6526    1.6538 C   0  0  3  0  0  0  0  0  0  0  0  0
    9.5012    6.1926    2.9867 N   0  0  0  0  0  0  0  0  0  0  0  0
   10.6226    4.9866    0.6140 O   0  0  0  0  0  0  0  0  0  0  0  0
   10.4472    7.3748   -0.7672 O   0  0  0  0  0  0  0  0  0  0  0  0
    7.2602    7.1954    4.6077 N   0  0  0  0  0  0  0  0  0  0  0  0
   -0.6594    3.4387   -2.7355 C   0  0  3  0  0  0  0  0  0  0  0  0
   -2.1640    3.7351   -2.6540 C   0  0  3  0  0  0  0  0  0  0  0  0
   -2.7868    3.3536   -1.2937 C   0  0  3  0  0  0  0  0  0  0  0  0
   -4.1360    3.7939   -1.1529 O   0  0  0  0  0  0  0  0  0  0  0  0
   -2.8466    3.0391   -3.7057 O   0  0  0  0  0  0  0  0  0  0  0  0
   -0.3875    1.9686   -2.8691 N   0  0  0  0  0  0  0  0  0  0  0  0
   -1.8775    7.2497   -0.2219 H   0  0  0  0  0  0  0  0  0  0  0  0
   -2.5687    6.3801   -1.3923 H   0  0  0  0  0  0  0  0  0  0  0  0
   -3.2310    5.4580    0.6062 H   0  0  0  0  0  0  0  0  0  0  0  0
   -1.5722    5.5126    1.2007 H   0  0  0  0  0  0  0  0  0  0  0  0
   -2.2412    3.2645    0.7500 H   0  0  0  0  0  0  0  0  0  0  0  0
    0.0469    5.1211   -1.5756 H   0  0  0  0  0  0  0  0  0  0  0  0
    1.9929    5.3398   -0.7688 H   0  0  0  0  0  0  0  0  0  0  0  0
    3.7674    3.2014   -1.5571 H   0  0  0  0  0  0  0  0  0  0  0  0
    4.4017    5.2958   -2.2942 H   0  0  0  0  0  0  0  0  0  0  0  0
    5.5784    4.9119   -1.0244 H   0  0  0  0  0  0  0  0  0  0  0  0
    2.8084    6.3220    0.9210 H   0  0  0  0  0  0  0  0  0  0  0  0
    1.9343   11.0351    2.1884 H   0  0  0  0  0  0  0  0  0  0  0  0
    2.9000   12.9601    3.3819 H   0  0  0  0  0  0  0  0  0  0  0  0
    6.7272   10.9115    3.4950 H   0  0  0  0  0  0  0  0  0  0  0  0
    5.6807    8.9784    2.3943 H   0  0  0  0  0  0  0  0  0  0  0  0
    4.1998   14.5917    3.4161 H   0  0  0  0  0  0  0  0  0  0  0  0
    7.5854   14.9160    4.9585 H   0  0  0  0  0  0  0  0  0  0  0  0
    8.4679   17.0335    5.7477 H   0  0  0  0  0  0  0  0  0  0  0  0
    7.1247   19.0841    5.6158 H   0  0  0  0  0  0  0  0  0  0  0  0
    3.8769   16.8562    3.8623 H   0  0  0  0  0  0  0  0  0  0  0  0
    6.2232   20.8393    4.1799 H   0  0  0  0  0  0  0  0  0  0  0  0
    1.4124   22.0270    4.3715 H   0  0  0  0  0  0  0  0  0  0  0  0
   -0.7317   22.0416    4.5443 H   0  0  0  0  0  0  0  0  0  0  0  0
   -1.1346   21.2913    6.1027 H   0  0  0  0  0  0  0  0  0  0  0  0
   -1.5886   20.4909    4.5678 H   0  0  0  0  0  0  0  0  0  0  0  0
    3.2843    2.8875    2.1829 H   0  0  0  0  0  0  0  0  0  0  0  0
    1.3659    4.7239    1.4474 H   0  0  0  0  0  0  0  0  0  0  0  0
    1.6975    2.0382    0.5571 H   0  0  0  0  0  0  0  0  0  0  0  0
    5.7139    3.8162    1.8911 H   0  0  0  0  0  0  0  0  0  0  0  0
    4.1138    2.9622    3.8668 H   0  0  0  0  0  0  0  0  0  0  0  0
    6.9371    2.8645    4.0097 H   0  0  0  0  0  0  0  0  0  0  0  0
    4.0650    4.7528    5.3870 H   0  0  0  0  0  0  0  0  0  0  0  0
    5.7683    2.4819    6.0548 H   0  0  0  0  0  0  0  0  0  0  0  0
    4.2109    2.6541    6.3516 H   0  0  0  0  0  0  0  0  0  0  0  0
    7.1097    4.6715    5.3967 H   0  0  0  0  0  0  0  0  0  0  0  0
    6.0894    5.7136    6.3757 H   0  0  0  0  0  0  0  0  0  0  0  0
    5.2290    6.8484    4.2498 H   0  0  0  0  0  0  0  0  0  0  0  0
    7.2543    4.9853    2.9389 H   0  0  0  0  0  0  0  0  0  0  0  0
    7.5122    8.0385    2.2091 H   0  0  0  0  0  0  0  0  0  0  0  0
    7.2243    6.3748   -1.0828 H   0  0  0  0  0  0  0  0  0  0  0  0
    6.9072    8.3528   -2.4666 H   0  0  0  0  0  0  0  0  0  0  0  0
    8.2514    7.4281   -3.1136 H   0  0  0  0  0  0  0  0  0  0  0  0
    8.3433    9.8637   -1.5055 H   0  0  0  0  0  0  0  0  0  0  0  0
    8.6125    9.7531   -3.0937 H   0  0  0  0  0  0  0  0  0  0  0  0
    9.5191    5.7964   -1.6536 H   0  0  0  0  0  0  0  0  0  0  0  0
    8.5777    4.8795    0.4816 H   0  0  0  0  0  0  0  0  0  0  0  0
    9.7472    7.5099    1.4980 H   0  0  0  0  0  0  0  0  0  0  0  0
    9.0212    5.3434    3.2445 H   0  0  0  0  0  0  0  0  0  0  0  0
    9.2198    6.9271    3.6383 H   0  0  0  0  0  0  0  0  0  0  0  0
   11.2920    5.6912    0.4997 H   0  0  0  0  0  0  0  0  0  0  0  0
   10.0820    8.2792   -0.8871 H   0  0  0  0  0  0  0  0  0  0  0  0
    8.0214    6.6557    5.0307 H   0  0  0  0  0  0  0  0  0  0  0  0
    6.9539    7.7947    5.3802 H   0  0  0  0  0  0  0  0  0  0  0  0
   -0.2448    3.8845   -3.6485 H   0  0  0  0  0  0  0  0  0  0  0  0
   -2.3350    4.7963   -2.8533 H   0  0  0  0  0  0  0  0  0  0  0  0
   -2.8058    2.2541   -1.2457 H   0  0  0  0  0  0  0  0  0  0  0  0
   -4.3696    4.2854   -1.9579 H   0  0  0  0  0  0  0  0  0  0  0  0
   -2.3290    2.2135   -3.8340 H   0  0  0  0  0  0  0  0  0  0  0  0
   -0.5712    1.5514   -1.9487 H   0  0  0  0  0  0  0  0  0  0  0  0
    0.6346    1.8924   -2.9235 H   0  0  0  0  0  0  0  0  0  0  0  0
  1  2  1  0  0  0  0
  1 72  1  0  0  0  0
  1 73  1  0  0  0  0
  2  3  1  0  0  0  0
  2 74  1  0  0  0  0
  2 75  1  0  0  0  0
  3  4  1  0  0  0  0
  3 68  1  0  0  0  0
  3 76  1  0  0  0  0
  4  5  1  0  0  0  0
  5  6  1  0  0  0  0
  5 66  1  0  0  0  0
  5 77  1  0  0  0  0
  6  7  1  0  0  0  0
  7  8  1  0  0  0  0
  7 42  1  0  0  0  0
  7 78  1  0  0  0  0
  8  9  1  0  0  0  0
  8 40  1  0  0  0  0
  8 79  1  0  0  0  0
  9 10  1  0  0  0  0
  9 80  1  0  0  0  0
  9 81  1  0  0  0  0
 10 11  1  0  0  0  0
 10 14  1  0  0  0  0
 11 12  2  0  0  0  0
 12 13  1  0  0  0  0
 13 14  2  0  0  0  0
 13 15  1  0  0  0  0
 14 82  1  0  0  0  0
 15 16  1  0  0  0  0
 16 17  1  0  0  0  0
 16 21  2  0  0  0  0
 17 18  2  0  0  0  0
 17 83  1  0  0  0  0
 18 19  1  0  0  0  0
 18 84  1  0  0  0  0
 19 20  2  0  0  0  0
 19 22  1  0  0  0  0
 20 21  1  0  0  0  0
 20 85  1  0  0  0  0
 21 86  1  0  0  0  0
 22 23  2  0  0  0  0
 22 24  1  0  0  0  0
 24 25  1  0  0  0  0
 24 87  1  0  0  0  0
 25 26  1  0  0  0  0
 25 30  2  0  0  0  0
 26 27  2  0  0  0  0
 26 88  1  0  0  0  0
 27 28  1  0  0  0  0
 27 89  1  0  0  0  0
 28 29  2  0  0  0  0
 28 90  1  0  0  0  0
 29 30  1  0  0  0  0
 29 31  1  0  0  0  0
 30 91  1  0  0  0  0
 31 32  2  0  0  0  0
 31 35  1  0  0  0  0
 32 33  1  0  0  0  0
 32 92  1  0  0  0  0
 33 34  1  0  0  0  0
 34 35  2  0  0  0  0
 34 36  1  0  0  0  0
 36 37  1  0  0  0  0
 36 93  1  0  0  0  0
 37 38  2  0  0  0  0
 37 39  1  0  0  0  0
 39 94  1  0  0  0  0
 39 95  1  0  0  0  0
 39 96  1  0  0  0  0
 40 41  1  0  0  0  0
 41 42  1  0  0  0  0
 41 44  1  0  0  0  0
 41 97  1  0  0  0  0
 42 43  1  0  0  0  0
 42 98  1  0  0  0  0
 43 99  1  0  0  0  0
 44 45  1  0  0  0  0
 45 46  1  0  0  0  0
 45 52  1  0  0  0  0
 45100  1  0  0  0  0
 46 47  1  0  0  0  0
 46 48  1  0  0  0  0
 46101  1  0  0  0  0
 47102  1  0  0  0  0
 48 49  1  0  0  0  0
 48 50  1  0  0  0  0
 48103  1  0  0  0  0
 49104  1  0  0  0  0
 49105  1  0  0  0  0
 50 51  1  0  0  0  0
 50106  1  0  0  0  0
 50107  1  0  0  0  0
 51 52  1  0  0  0  0
 51 65  1  0  0  0  0
 51108  1  0  0  0  0
 52 53  1  0  0  0  0
 52109  1  0  0  0  0
 53 54  1  0  0  0  0
 54 55  1  0  0  0  0
 54 61  1  0  0  0  0
 54110  1  0  0  0  0
 55 56  1  0  0  0  0
 56 57  1  0  0  0  0
 56 59  1  0  0  0  0
 56111  1  0  0  0  0
 57 58  1  0  0  0  0
 57112  1  0  0  0  0
 57113  1  0  0  0  0
 58114  1  0  0  0  0
 58115  1  0  0  0  0
 59 60  1  0  0  0  0
 59 64  1  0  0  0  0
 59116  1  0  0  0  0
 60 61  1  0  0  0  0
 60 63  1  0  0  0  0
 60117  1  0  0  0  0
 61 62  1  0  0  0  0
 61118  1  0  0  0  0
 62119  1  0  0  0  0
 62120  1  0  0  0  0
 63121  1  0  0  0  0
 64122  1  0  0  0  0
 65123  1  0  0  0  0
 65124  1  0  0  0  0
 66 67  1  0  0  0  0
 66 71  1  0  0  0  0
 66125  1  0  0  0  0
 67 68  1  0  0  0  0
 67 70  1  0  0  0  0
 67126  1  0  0  0  0
 68 69  1  0  0  0  0
 68127  1  0  0  0  0
 69128  1  0  0  0  0
 70129  1  0  0  0  0
 71130  1  0  0  0  0
 71131  1  0  0  0  0
M  END
$$$$
Target_lig_771
 OpenBabel04172506213D

131138  0  0  1  0  0  0  0  0999 V2000
    0.5285    0.4062    0.2276 N   0  0  0  0  0  0  0  0  0  0  0  0
    1.8064   -0.0207   -0.3262 C   0  0  0  0  0  0  0  0  0  0  0  0
    2.4293   -1.3121    0.2709 C   0  0  3  0  0  0  0  0  0  0  0  0
    3.6537   -1.6000   -0.3908 O   0  0  0  0  0  0  0  0  0  0  0  0
    3.5898   -1.9996   -1.7715 C   0  0  3  0  0  0  0  0  0  0  0  0
    4.8830   -2.0269   -2.3883 O   0  0  0  0  0  0  0  0  0  0  0  0
    5.7486   -0.9005   -2.2455 C   0  0  3  0  0  0  0  0  0  0  0  0
    5.8617   -0.3924   -0.8275 C   0  0  3  0  0  0  0  0  0  0  0  0
    7.0089   -1.0486   -0.1222 C   0  0  0  0  0  0  0  0  0  0  0  0
    7.0813   -2.4857   -0.0215 N   0  0  0  0  0  0  0  0  0  0  0  0
    7.3456   -3.2121   -1.1174 N   0  0  0  0  0  0  0  0  0  0  0  0
    7.9476   -4.3227   -0.7327 N   0  0  0  0  0  0  0  0  0  0  0  0
    8.0482   -4.2944    0.6293 C   0  0  0  0  0  0  0  0  0  0  0  0
    7.4157   -3.1801    1.1144 C   0  0  0  0  0  0  0  0  0  0  0  0
    8.6382   -5.2242    1.4049 O   0  0  0  0  0  0  0  0  0  0  0  0
    8.3613   -6.5424    1.1396 C   0  0  0  0  0  0  0  0  0  0  0  0
    9.2155   -7.5178    1.6549 C   0  0  0  0  0  0  0  0  0  0  0  0
    8.7639   -8.8381    1.7388 C   0  0  0  0  0  0  0  0  0  0  0  0
    7.4764   -9.1291    1.2733 C   0  0  0  0  0  0  0  0  0  0  0  0
    6.8026   -8.2253    0.4531 C   0  0  0  0  0  0  0  0  0  0  0  0
    7.1810   -6.9084    0.4919 C   0  0  0  0  0  0  0  0  0  0  0  0
    6.5407  -10.1004    1.8989 C   0  0  0  0  0  0  0  0  0  0  0  0
    5.4392  -10.2112    1.3697 O   0  0  0  0  0  0  0  0  0  0  0  0
    6.8973  -10.6686    3.1094 N   0  0  0  0  0  0  0  0  0  0  0  0
    6.0148  -11.4201    3.9247 C   0  0  0  0  0  0  0  0  0  0  0  0
    4.6820  -11.6656    3.5856 C   0  0  0  0  0  0  0  0  0  0  0  0
    3.8623  -12.4581    4.3869 C   0  0  0  0  0  0  0  0  0  0  0  0
    4.3707  -13.0217    5.5448 C   0  0  0  0  0  0  0  0  0  0  0  0
    5.7017  -12.7816    5.9123 C   0  0  0  0  0  0  0  0  0  0  0  0
    6.5103  -11.9493    5.1137 C   0  0  0  0  0  0  0  0  0  0  0  0
    6.2687  -13.4041    7.0936 C   0  0  0  0  0  0  0  0  0  0  0  0
    5.9378  -14.6756    7.5060 C   0  0  0  0  0  0  0  0  0  0  0  0
    6.8891  -15.1089    8.8673 S   0  0  0  0  0  0  0  0  0  0  0  0
    7.6172  -13.5506    8.8069 C   0  0  0  0  0  0  0  0  0  0  0  0
    7.2285  -12.7744    7.8420 N   0  0  0  0  0  0  0  0  0  0  0  0
    8.5307  -13.3570    9.8035 N   0  0  0  0  0  0  0  0  0  0  0  0
    9.1414  -12.1599   10.0184 C   0  0  0  0  0  0  0  0  0  0  0  0
    8.9738  -11.1202    9.4041 O   0  0  0  0  0  0  0  0  0  0  0  0
   10.1076  -12.1837   11.1783 C   0  0  0  0  0  0  0  0  0  0  0  0
    5.8313    1.0372   -0.8488 O   0  0  0  0  0  0  0  0  0  0  0  0
    6.1889    1.4736   -2.1590 C   0  0  3  0  0  0  0  0  0  0  0  0
    5.5408    0.3747   -3.0581 C   0  0  3  0  0  0  0  0  0  0  0  0
    4.1300    0.6565   -3.1654 O   0  0  0  0  0  0  0  0  0  0  0  0
    7.5985    1.7436   -2.0805 O   0  0  0  0  0  0  0  0  0  0  0  0
    7.8443    2.7447   -1.0176 C   0  0  3  0  0  0  0  0  0  0  0  0
    7.4672    4.1880   -1.4519 C   0  0  3  0  0  0  0  0  0  0  0  0
    7.3978    5.0296   -0.2781 O   0  0  0  0  0  0  0  0  0  0  0  0
    8.4352    4.7215   -2.5493 C   0  0  3  0  0  0  0  0  0  0  0  0
    8.1535    6.1048   -3.0243 N   0  0  0  0  0  0  0  0  0  0  0  0
    9.8942    4.6194   -2.0840 C   0  0  0  0  0  0  0  0  0  0  0  0
   10.2817    3.2184   -1.5370 C   0  0  3  0  0  0  0  0  0  0  0  0
    9.2963    2.7485   -0.4311 C   0  0  3  0  0  0  0  0  0  0  0  0
    9.7223    1.5230    0.2097 O   0  0  0  0  0  0  0  0  0  0  0  0
    8.8862    1.0921    1.2924 C   0  0  3  0  0  0  0  0  0  0  0  0
    8.6073    2.1147    2.2524 O   0  0  0  0  0  0  0  0  0  0  0  0
    9.3217    1.9849    3.4816 C   0  0  3  0  0  0  0  0  0  0  0  0
    8.6785    2.9637    4.4786 C   0  0  0  0  0  0  0  0  0  0  0  0
    7.2885    2.5579    4.8136 N   0  0  0  0  0  0  0  0  0  0  0  0
    9.2265    0.5700    4.0479 C   0  0  3  0  0  0  0  0  0  0  0  0
    9.9816   -0.3564    3.1278 C   0  0  3  0  0  0  0  0  0  0  0  0
    9.3231   -0.3389    1.7703 C   0  0  3  0  0  0  0  0  0  0  0  0
   10.1172   -1.0521    0.7827 N   0  0  0  0  0  0  0  0  0  0  0  0
    9.9371   -1.6690    3.6856 O   0  0  0  0  0  0  0  0  0  0  0  0
    7.8226    0.2287    4.0933 O   0  0  0  0  0  0  0  0  0  0  0  0
   11.6688    3.2970   -1.0476 N   0  0  0  0  0  0  0  0  0  0  0  0
    3.0058   -3.4090   -1.7004 C   0  0  3  0  0  0  0  0  0  0  0  0
    1.5863   -3.2436   -1.0984 C   0  0  3  0  0  0  0  0  0  0  0  0
    1.6226   -2.6042    0.3082 C   0  0  3  0  0  0  0  0  0  0  0  0
    0.3403   -2.4263    0.8818 O   0  0  0  0  0  0  0  0  0  0  0  0
    0.9324   -4.5099   -1.0416 O   0  0  0  0  0  0  0  0  0  0  0  0
    3.8476   -4.3186   -0.8519 N   0  0  0  0  0  0  0  0  0  0  0  0
    0.2652    1.3055   -0.1670 H   0  0  0  0  0  0  0  0  0  0  0  0
    0.6203    0.5404    1.2352 H   0  0  0  0  0  0  0  0  0  0  0  0
    2.5293    0.7830   -0.2030 H   0  0  0  0  0  0  0  0  0  0  0  0
    1.6653   -0.1186   -1.4099 H   0  0  0  0  0  0  0  0  0  0  0  0
    2.6871   -1.0582    1.3085 H   0  0  0  0  0  0  0  0  0  0  0  0
    2.9641   -1.3406   -2.3573 H   0  0  0  0  0  0  0  0  0  0  0  0
    6.7318   -1.2569   -2.5840 H   0  0  0  0  0  0  0  0  0  0  0  0
    5.0839   -0.5197   -0.1095 H   0  0  0  0  0  0  0  0  0  0  0  0
    6.9010   -0.6998    0.9009 H   0  0  0  0  0  0  0  0  0  0  0  0
    7.9422   -0.7146   -0.5772 H   0  0  0  0  0  0  0  0  0  0  0  0
    7.2802   -2.7987    2.1166 H   0  0  0  0  0  0  0  0  0  0  0  0
   10.1741   -7.2296    2.0803 H   0  0  0  0  0  0  0  0  0  0  0  0
    9.3742   -9.5805    2.2421 H   0  0  0  0  0  0  0  0  0  0  0  0
    5.8506   -8.4721   -0.0128 H   0  0  0  0  0  0  0  0  0  0  0  0
    6.4689   -6.1856    0.1069 H   0  0  0  0  0  0  0  0  0  0  0  0
    7.8213  -10.4907    3.4902 H   0  0  0  0  0  0  0  0  0  0  0  0
    4.2163  -11.2622    2.6977 H   0  0  0  0  0  0  0  0  0  0  0  0
    2.8296  -12.6263    4.0936 H   0  0  0  0  0  0  0  0  0  0  0  0
    3.7193  -13.6412    6.1473 H   0  0  0  0  0  0  0  0  0  0  0  0
    7.5335  -11.7517    5.4284 H   0  0  0  0  0  0  0  0  0  0  0  0
    5.2275  -15.3749    7.0854 H   0  0  0  0  0  0  0  0  0  0  0  0
    8.7051  -14.1434   10.4065 H   0  0  0  0  0  0  0  0  0  0  0  0
   10.2339  -13.1953   11.5702 H   0  0  0  0  0  0  0  0  0  0  0  0
    9.7232  -11.5439   11.9770 H   0  0  0  0  0  0  0  0  0  0  0  0
   11.0790  -11.8171   10.8391 H   0  0  0  0  0  0  0  0  0  0  0  0
    5.6685    2.4081   -2.3830 H   0  0  0  0  0  0  0  0  0  0  0  0
    5.9516    0.3108   -4.0693 H   0  0  0  0  0  0  0  0  0  0  0  0
    3.7988    0.7592   -2.2534 H   0  0  0  0  0  0  0  0  0  0  0  0
    7.1982    2.5269   -0.1661 H   0  0  0  0  0  0  0  0  0  0  0  0
    6.4592    4.2035   -1.8759 H   0  0  0  0  0  0  0  0  0  0  0  0
    8.1364    4.8508    0.3325 H   0  0  0  0  0  0  0  0  0  0  0  0
    8.3225    4.0817   -3.4328 H   0  0  0  0  0  0  0  0  0  0  0  0
    8.0459    6.7324   -2.2239 H   0  0  0  0  0  0  0  0  0  0  0  0
    7.2509    6.1349   -3.5052 H   0  0  0  0  0  0  0  0  0  0  0  0
   10.0783    5.3793   -1.3111 H   0  0  0  0  0  0  0  0  0  0  0  0
   10.5516    4.8698   -2.9279 H   0  0  0  0  0  0  0  0  0  0  0  0
   10.2738    2.4845   -2.3513 H   0  0  0  0  0  0  0  0  0  0  0  0
    9.3643    3.4925    0.3686 H   0  0  0  0  0  0  0  0  0  0  0  0
    7.9171    0.9558    0.8248 H   0  0  0  0  0  0  0  0  0  0  0  0
   10.3622    2.2666    3.2951 H   0  0  0  0  0  0  0  0  0  0  0  0
    8.6672    3.9715    4.0507 H   0  0  0  0  0  0  0  0  0  0  0  0
    9.2645    2.9769    5.4017 H   0  0  0  0  0  0  0  0  0  0  0  0
    6.7013    2.7814    3.9999 H   0  0  0  0  0  0  0  0  0  0  0  0
    6.9544    3.2280    5.5174 H   0  0  0  0  0  0  0  0  0  0  0  0
    9.6150    0.4947    5.0695 H   0  0  0  0  0  0  0  0  0  0  0  0
   11.0396   -0.0611    3.0602 H   0  0  0  0  0  0  0  0  0  0  0  0
    8.4120   -0.9067    1.9497 H   0  0  0  0  0  0  0  0  0  0  0  0
   10.3641   -0.3450    0.0628 H   0  0  0  0  0  0  0  0  0  0  0  0
    9.6179   -1.7686    0.2681 H   0  0  0  0  0  0  0  0  0  0  0  0
    9.0296   -1.9960    3.5391 H   0  0  0  0  0  0  0  0  0  0  0  0
    7.3570    1.0160    4.4481 H   0  0  0  0  0  0  0  0  0  0  0  0
   11.7567    4.0350   -0.3512 H   0  0  0  0  0  0  0  0  0  0  0  0
   12.2862    3.5455   -1.8184 H   0  0  0  0  0  0  0  0  0  0  0  0
    2.9611   -3.8662   -2.7012 H   0  0  0  0  0  0  0  0  0  0  0  0
    0.9840   -2.6124   -1.7624 H   0  0  0  0  0  0  0  0  0  0  0  0
    2.1366   -3.3012    0.9846 H   0  0  0  0  0  0  0  0  0  0  0  0
   -0.2861   -2.3401    0.1463 H   0  0  0  0  0  0  0  0  0  0  0  0
    1.5927   -5.1112   -0.6425 H   0  0  0  0  0  0  0  0  0  0  0  0
    4.0303   -3.8246    0.0308 H   0  0  0  0  0  0  0  0  0  0  0  0
    4.7755   -4.3406   -1.2784 H   0  0  0  0  0  0  0  0  0  0  0  0
  1  2  1  0  0  0  0
  1 72  1  0  0  0  0
  1 73  1  0  0  0  0
  2  3  1  0  0  0  0
  2 74  1  0  0  0  0
  2 75  1  0  0  0  0
  3  4  1  0  0  0  0
  3 68  1  0  0  0  0
  3 76  1  0  0  0  0
  4  5  1  0  0  0  0
  5  6  1  0  0  0  0
  5 66  1  0  0  0  0
  5 77  1  0  0  0  0
  6  7  1  0  0  0  0
  7  8  1  0  0  0  0
  7 42  1  0  0  0  0
  7 78  1  0  0  0  0
  8  9  1  0  0  0  0
  8 40  1  0  0  0  0
  8 79  1  0  0  0  0
  9 10  1  0  0  0  0
  9 80  1  0  0  0  0
  9 81  1  0  0  0  0
 10 11  1  0  0  0  0
 10 14  1  0  0  0  0
 11 12  2  0  0  0  0
 12 13  1  0  0  0  0
 13 14  2  0  0  0  0
 13 15  1  0  0  0  0
 14 82  1  0  0  0  0
 15 16  1  0  0  0  0
 16 17  1  0  0  0  0
 16 21  2  0  0  0  0
 17 18  2  0  0  0  0
 17 83  1  0  0  0  0
 18 19  1  0  0  0  0
 18 84  1  0  0  0  0
 19 20  2  0  0  0  0
 19 85  1  0  0  0  0
 20 21  1  0  0  0  0
 20 22  1  0  0  0  0
 21 86  1  0  0  0  0
 22 23  2  0  0  0  0
 22 24  1  0  0  0  0
 24 25  1  0  0  0  0
 24 87  1  0  0  0  0
 25 26  1  0  0  0  0
 25 30  2  0  0  0  0
 26 27  2  0  0  0  0
 26 88  1  0  0  0  0
 27 28  1  0  0  0  0
 27 89  1  0  0  0  0
 28 29  2  0  0  0  0
 28 90  1  0  0  0  0
 29 30  1  0  0  0  0
 29 31  1  0  0  0  0
 30 91  1  0  0  0  0
 31 32  2  0  0  0  0
 31 35  1  0  0  0  0
 32 33  1  0  0  0  0
 32 92  1  0  0  0  0
 33 34  1  0  0  0  0
 34 35  2  0  0  0  0
 34 36  1  0  0  0  0
 36 37  1  0  0  0  0
 36 93  1  0  0  0  0
 37 38  2  0  0  0  0
 37 39  1  0  0  0  0
 39 94  1  0  0  0  0
 39 95  1  0  0  0  0
 39 96  1  0  0  0  0
 40 41  1  0  0  0  0
 41 42  1  0  0  0  0
 41 44  1  0  0  0  0
 41 97  1  0  0  0  0
 42 43  1  0  0  0  0
 42 98  1  0  0  0  0
 43 99  1  0  0  0  0
 44 45  1  0  0  0  0
 45 46  1  0  0  0  0
 45 52  1  0  0  0  0
 45100  1  0  0  0  0
 46 47  1  0  0  0  0
 46 48  1  0  0  0  0
 46101  1  0  0  0  0
 47102  1  0  0  0  0
 48 49  1  0  0  0  0
 48 50  1  0  0  0  0
 48103  1  0  0  0  0
 49104  1  0  0  0  0
 49105  1  0  0  0  0
 50 51  1  0  0  0  0
 50106  1  0  0  0  0
 50107  1  0  0  0  0
 51 52  1  0  0  0  0
 51 65  1  0  0  0  0
 51108  1  0  0  0  0
 52 53  1  0  0  0  0
 52109  1  0  0  0  0
 53 54  1  0  0  0  0
 54 55  1  0  0  0  0
 54 61  1  0  0  0  0
 54110  1  0  0  0  0
 55 56  1  0  0  0  0
 56 57  1  0  0  0  0
 56 59  1  0  0  0  0
 56111  1  0  0  0  0
 57 58  1  0  0  0  0
 57112  1  0  0  0  0
 57113  1  0  0  0  0
 58114  1  0  0  0  0
 58115  1  0  0  0  0
 59 60  1  0  0  0  0
 59 64  1  0  0  0  0
 59116  1  0  0  0  0
 60 61  1  0  0  0  0
 60 63  1  0  0  0  0
 60117  1  0  0  0  0
 61 62  1  0  0  0  0
 61118  1  0  0  0  0
 62119  1  0  0  0  0
 62120  1  0  0  0  0
 63121  1  0  0  0  0
 64122  1  0  0  0  0
 65123  1  0  0  0  0
 65124  1  0  0  0  0
 66 67  1  0  0  0  0
 66 71  1  0  0  0  0
 66125  1  0  0  0  0
 67 68  1  0  0  0  0
 67 70  1  0  0  0  0
 67126  1  0  0  0  0
 68 69  1  0  0  0  0
 68127  1  0  0  0  0
 69128  1  0  0  0  0
 70129  1  0  0  0  0
 71130  1  0  0  0  0
 71131  1  0  0  0  0
M  END
$$$$
Target_lig_772
 OpenBabel04172506213D

116122  0  0  1  0  0  0  0  0999 V2000
    4.8118   -3.5366   -3.9897 C   0  0  0  0  0  0  0  0  0  0  0  0
    3.6884   -3.2555   -4.8836 N   0  0  0  0  0  0  0  0  0  0  0  0
    3.4350   -1.7824   -4.9956 C   0  0  3  0  0  0  0  0  0  0  0  0
    2.7349   -1.1750   -3.7368 C   0  0  3  0  0  0  0  0  0  0  0  0
    2.6012    0.2450   -3.6902 O   0  0  0  0  0  0  0  0  0  0  0  0
    3.7953    0.9700   -4.0006 C   0  0  3  0  0  0  0  0  0  0  0  0
    4.8021    0.7682   -3.0147 O   0  0  0  0  0  0  0  0  0  0  0  0
    4.7590    1.6192   -1.8604 C   0  0  3  0  0  0  0  0  0  0  0  0
    5.9278    1.3008   -0.9039 C   0  0  0  0  0  0  0  0  0  0  0  0
    7.2744    1.4242   -1.4239 N   0  0  0  0  0  0  0  0  0  0  0  0
    7.5737    1.1112   -2.6976 N   0  0  0  0  0  0  0  0  0  0  0  0
    8.8443    1.4155   -2.9034 N   0  0  0  0  0  0  0  0  0  0  0  0
    9.3677    1.8794   -1.7255 C   0  0  0  0  0  0  0  0  0  0  0  0
    8.3869    1.8566   -0.7542 C   0  0  0  0  0  0  0  0  0  0  0  0
   10.7573    2.3676   -1.6608 C   0  0  0  0  0  0  0  0  0  0  0  0
   10.9522    3.6400   -2.4808 C   0  0  0  0  0  0  0  0  0  0  0  0
   10.0789    4.7596   -1.9353 C   0  0  0  0  0  0  0  0  0  0  0  0
   10.2752    5.1795   -0.7962 O   0  0  0  0  0  0  0  0  0  0  0  0
    9.0828    5.1722   -2.8086 N   0  0  0  0  0  0  0  0  0  0  0  0
    8.1271    6.1942   -2.5852 C   0  0  0  0  0  0  0  0  0  0  0  0
    8.1627    7.0302   -1.4683 C   0  0  0  0  0  0  0  0  0  0  0  0
    7.1474    7.9535   -1.2419 C   0  0  0  0  0  0  0  0  0  0  0  0
    6.0869    8.0617   -2.1424 C   0  0  0  0  0  0  0  0  0  0  0  0
    6.0476    7.2816   -3.3094 C   0  0  0  0  0  0  0  0  0  0  0  0
    7.0809    6.3516   -3.5196 C   0  0  0  0  0  0  0  0  0  0  0  0
    4.9213    7.4037   -4.2450 C   0  0  0  0  0  0  0  0  0  0  0  0
    4.1491    8.5490   -4.3467 C   0  0  0  0  0  0  0  0  0  0  0  0
    2.7889    8.2649   -5.3457 S   0  0  0  0  0  0  0  0  0  0  0  0
    3.3717    6.6897   -5.6531 C   0  0  0  0  0  0  0  0  0  0  0  0
    4.5022    6.3595   -5.0711 N   0  0  0  0  0  0  0  0  0  0  0  0
    2.5153    5.9554   -6.4282 N   0  0  0  0  0  0  0  0  0  0  0  0
    2.8417    4.7411   -6.9834 C   0  0  0  0  0  0  0  0  0  0  0  0
    3.9544    4.2328   -7.0143 O   0  0  0  0  0  0  0  0  0  0  0  0
    1.6603    4.0727   -7.6612 C   0  0  0  0  0  0  0  0  0  0  0  0
    4.6789    3.1070   -2.2547 C   0  0  3  0  0  0  0  0  0  0  0  0
    3.3713    3.2763   -3.0434 C   0  0  3  0  0  0  0  0  0  0  0  0
    3.4111    2.4294   -4.3140 C   0  0  3  0  0  0  0  0  0  0  0  0
    2.1471    2.4796   -4.9920 O   0  0  0  0  0  0  0  0  0  0  0  0
    3.1507    4.6528   -3.3432 O   0  0  0  0  0  0  0  0  0  0  0  0
    5.8186    3.5589   -3.0649 N   0  0  0  0  0  0  0  0  0  0  0  0
    1.4240   -1.7778   -3.6192 O   0  0  0  0  0  0  0  0  0  0  0  0
    0.5668   -1.4372   -4.7191 C   0  0  3  0  0  0  0  0  0  0  0  0
    1.1117   -1.9273   -6.0678 C   0  0  3  0  0  0  0  0  0  0  0  0
    2.5683   -1.4837   -6.2542 C   0  0  3  0  0  0  0  0  0  0  0  0
    3.1320   -2.1555   -7.3974 O   0  0  0  0  0  0  0  0  0  0  0  0
    0.2519   -1.4557   -7.1329 O   0  0  0  0  0  0  0  0  0  0  0  0
   -1.0217   -2.1185   -7.0928 C   0  0  3  0  0  0  0  0  0  0  0  0
   -1.7404   -1.8160   -5.7148 C   0  0  3  0  0  0  0  0  0  0  0  0
   -0.8046   -2.0926   -4.5229 C   0  0  0  0  0  0  0  0  0  0  0  0
   -2.2466   -0.4310   -5.6224 N   0  0  0  0  0  0  0  0  0  0  0  0
   -1.8850   -1.7313   -8.1829 O   0  0  0  0  0  0  0  0  0  0  0  0
   -1.4960   -2.2192   -9.4894 C   0  0  3  0  0  0  0  0  0  0  0  0
   -0.6680   -1.1677  -10.2661 C   0  0  3  0  0  0  0  0  0  0  0  0
   -0.1611   -1.6643  -11.5586 N   0  0  0  0  0  0  0  0  0  0  0  0
   -1.4709    0.1290  -10.4677 C   0  0  0  0  0  0  0  0  0  0  0  0
   -2.9159   -0.0190  -10.9780 C   0  0  3  0  0  0  0  0  0  0  0  0
   -3.6659   -1.2907  -10.4848 C   0  0  3  0  0  0  0  0  0  0  0  0
   -2.7731   -2.5348  -10.3027 C   0  0  3  0  0  0  0  0  0  0  0  0
   -3.4784   -3.6003   -9.6426 O   0  0  0  0  0  0  0  0  0  0  0  0
   -4.7232   -1.5845  -11.4268 O   0  0  0  0  0  0  0  0  0  0  0  0
   -3.0176    0.1418  -12.4527 N   0  0  0  0  0  0  0  0  0  0  0  0
    5.0068   -4.6129   -3.9730 H   0  0  0  0  0  0  0  0  0  0  0  0
    4.6066   -3.2285   -2.9564 H   0  0  0  0  0  0  0  0  0  0  0  0
    5.7286   -3.0426   -4.3277 H   0  0  0  0  0  0  0  0  0  0  0  0
    2.8535   -3.6966   -4.4870 H   0  0  0  0  0  0  0  0  0  0  0  0
    4.4169   -1.3346   -5.1751 H   0  0  0  0  0  0  0  0  0  0  0  0
    3.2806   -1.4634   -2.8327 H   0  0  0  0  0  0  0  0  0  0  0  0
    4.2017    0.5981   -4.9419 H   0  0  0  0  0  0  0  0  0  0  0  0
    3.8424    1.3661   -1.3109 H   0  0  0  0  0  0  0  0  0  0  0  0
    5.8444    0.2663   -0.5534 H   0  0  0  0  0  0  0  0  0  0  0  0
    5.8648    1.9617   -0.0299 H   0  0  0  0  0  0  0  0  0  0  0  0
    8.3786    2.1412    0.2851 H   0  0  0  0  0  0  0  0  0  0  0  0
   11.4311    1.5930   -2.0411 H   0  0  0  0  0  0  0  0  0  0  0  0
   11.0444    2.5499   -0.6104 H   0  0  0  0  0  0  0  0  0  0  0  0
   10.7367    3.4594   -3.5374 H   0  0  0  0  0  0  0  0  0  0  0  0
   11.9927    3.9765   -2.4175 H   0  0  0  0  0  0  0  0  0  0  0  0
    8.9564    4.6303   -3.6568 H   0  0  0  0  0  0  0  0  0  0  0  0
    8.9713    6.9876   -0.7445 H   0  0  0  0  0  0  0  0  0  0  0  0
    7.1737    8.5771   -0.3539 H   0  0  0  0  0  0  0  0  0  0  0  0
    5.2859    8.7527   -1.8981 H   0  0  0  0  0  0  0  0  0  0  0  0
    7.0312    5.7102   -4.3984 H   0  0  0  0  0  0  0  0  0  0  0  0
    4.2753    9.5034   -3.8573 H   0  0  0  0  0  0  0  0  0  0  0  0
    1.6079    6.3631   -6.5918 H   0  0  0  0  0  0  0  0  0  0  0  0
    0.7622    4.6941   -7.6395 H   0  0  0  0  0  0  0  0  0  0  0  0
    1.4172    3.1267   -7.1563 H   0  0  0  0  0  0  0  0  0  0  0  0
    1.9139    3.8569   -8.6961 H   0  0  0  0  0  0  0  0  0  0  0  0
    4.6338    3.7480   -1.3665 H   0  0  0  0  0  0  0  0  0  0  0  0
    2.5171    2.9737   -2.4302 H   0  0  0  0  0  0  0  0  0  0  0  0
    4.1600    2.8429   -4.9985 H   0  0  0  0  0  0  0  0  0  0  0  0
    1.4796    2.1967   -4.3438 H   0  0  0  0  0  0  0  0  0  0  0  0
    3.9376    4.9366   -3.8668 H   0  0  0  0  0  0  0  0  0  0  0  0
    6.1497    2.7991   -3.6730 H   0  0  0  0  0  0  0  0  0  0  0  0
    6.6238    3.7642   -2.4717 H   0  0  0  0  0  0  0  0  0  0  0  0
    0.4245   -0.3477   -4.7256 H   0  0  0  0  0  0  0  0  0  0  0  0
    1.1085   -3.0244   -6.0980 H   0  0  0  0  0  0  0  0  0  0  0  0
    2.6018   -0.4131   -6.4906 H   0  0  0  0  0  0  0  0  0  0  0  0
    3.7905   -2.7869   -7.0425 H   0  0  0  0  0  0  0  0  0  0  0  0
   -0.8589   -3.2017   -7.1600 H   0  0  0  0  0  0  0  0  0  0  0  0
   -2.6186   -2.4678   -5.6395 H   0  0  0  0  0  0  0  0  0  0  0  0
   -0.6642   -3.1801   -4.4144 H   0  0  0  0  0  0  0  0  0  0  0  0
   -1.2461   -1.7738   -3.5717 H   0  0  0  0  0  0  0  0  0  0  0  0
   -1.5354    0.2165   -5.9520 H   0  0  0  0  0  0  0  0  0  0  0  0
   -2.4575   -0.1911   -4.6481 H   0  0  0  0  0  0  0  0  0  0  0  0
   -0.9289   -3.1505   -9.3652 H   0  0  0  0  0  0  0  0  0  0  0  0
    0.2113   -0.9084   -9.6696 H   0  0  0  0  0  0  0  0  0  0  0  0
   -0.9123   -1.8676  -12.2129 H   0  0  0  0  0  0  0  0  0  0  0  0
    0.3322   -2.5473  -11.4130 H   0  0  0  0  0  0  0  0  0  0  0  0
   -0.9091    0.8090  -11.1247 H   0  0  0  0  0  0  0  0  0  0  0  0
   -1.5129    0.6490   -9.5022 H   0  0  0  0  0  0  0  0  0  0  0  0
   -3.4810    0.8394  -10.5883 H   0  0  0  0  0  0  0  0  0  0  0  0
   -4.1785   -1.0675   -9.5436 H   0  0  0  0  0  0  0  0  0  0  0  0
   -2.5169   -2.9375  -11.2886 H   0  0  0  0  0  0  0  0  0  0  0  0
   -3.6379   -3.3065   -8.7323 H   0  0  0  0  0  0  0  0  0  0  0  0
   -4.6188   -0.9172  -12.1414 H   0  0  0  0  0  0  0  0  0  0  0  0
   -2.4448   -0.5600  -12.9190 H   0  0  0  0  0  0  0  0  0  0  0  0
   -2.6105    1.0317  -12.7083 H   0  0  0  0  0  0  0  0  0  0  0  0
  1  2  1  0  0  0  0
  1 62  1  0  0  0  0
  1 63  1  0  0  0  0
  1 64  1  0  0  0  0
  2  3  1  0  0  0  0
  2 65  1  0  0  0  0
  3  4  1  0  0  0  0
  3 44  1  0  0  0  0
  3 66  1  0  0  0  0
  4  5  1  0  0  0  0
  4 41  1  0  0  0  0
  4 67  1  0  0  0  0
  5  6  1  0  0  0  0
  6  7  1  0  0  0  0
  6 37  1  0  0  0  0
  6 68  1  0  0  0  0
  7  8  1  0  0  0  0
  8  9  1  0  0  0  0
  8 35  1  0  0  0  0
  8 69  1  0  0  0  0
  9 10  1  0  0  0  0
  9 70  1  0  0  0  0
  9 71  1  0  0  0  0
 10 11  1  0  0  0  0
 10 14  1  0  0  0  0
 11 12  2  0  0  0  0
 12 13  1  0  0  0  0
 13 14  2  0  0  0  0
 13 15  1  0  0  0  0
 14 72  1  0  0  0  0
 15 16  1  0  0  0  0
 15 73  1  0  0  0  0
 15 74  1  0  0  0  0
 16 17  1  0  0  0  0
 16 75  1  0  0  0  0
 16 76  1  0  0  0  0
 17 18  2  0  0  0  0
 17 19  1  0  0  0  0
 19 20  1  0  0  0  0
 19 77  1  0  0  0  0
 20 21  1  0  0  0  0
 20 25  2  0  0  0  0
 21 22  2  0  0  0  0
 21 78  1  0  0  0  0
 22 23  1  0  0  0  0
 22 79  1  0  0  0  0
 23 24  2  0  0  0  0
 23 80  1  0  0  0  0
 24 25  1  0  0  0  0
 24 26  1  0  0  0  0
 25 81  1  0  0  0  0
 26 27  2  0  0  0  0
 26 30  1  0  0  0  0
 27 28  1  0  0  0  0
 27 82  1  0  0  0  0
 28 29  1  0  0  0  0
 29 30  2  0  0  0  0
 29 31  1  0  0  0  0
 31 32  1  0  0  0  0
 31 83  1  0  0  0  0
 32 33  2  0  0  0  0
 32 34  1  0  0  0  0
 34 84  1  0  0  0  0
 34 85  1  0  0  0  0
 34 86  1  0  0  0  0
 35 36  1  0  0  0  0
 35 40  1  0  0  0  0
 35 87  1  0  0  0  0
 36 37  1  0  0  0  0
 36 39  1  0  0  0  0
 36 88  1  0  0  0  0
 37 38  1  0  0  0  0
 37 89  1  0  0  0  0
 38 90  1  0  0  0  0
 39 91  1  0  0  0  0
 40 92  1  0  0  0  0
 40 93  1  0  0  0  0
 41 42  1  0  0  0  0
 42 43  1  0  0  0  0
 42 49  1  0  0  0  0
 42 94  1  0  0  0  0
 43 44  1  0  0  0  0
 43 46  1  0  0  0  0
 43 95  1  0  0  0  0
 44 45  1  0  0  0  0
 44 96  1  0  0  0  0
 45 97  1  0  0  0  0
 46 47  1  0  0  0  0
 47 48  1  0  0  0  0
 47 51  1  0  0  0  0
 47 98  1  0  0  0  0
 48 49  1  0  0  0  0
 48 50  1  0  0  0  0
 48 99  1  0  0  0  0
 49100  1  0  0  0  0
 49101  1  0  0  0  0
 50102  1  0  0  0  0
 50103  1  0  0  0  0
 51 52  1  0  0  0  0
 52 53  1  0  0  0  0
 52 58  1  0  0  0  0
 52104  1  0  0  0  0
 53 54  1  0  0  0  0
 53 55  1  0  0  0  0
 53105  1  0  0  0  0
 54106  1  0  0  0  0
 54107  1  0  0  0  0
 55 56  1  0  0  0  0
 55108  1  0  0  0  0
 55109  1  0  0  0  0
 56 57  1  0  0  0  0
 56 61  1  0  0  0  0
 56110  1  0  0  0  0
 57 58  1  0  0  0  0
 57 60  1  0  0  0  0
 57111  1  0  0  0  0
 58 59  1  0  0  0  0
 58112  1  0  0  0  0
 59113  1  0  0  0  0
 60114  1  0  0  0  0
 61115  1  0  0  0  0
 61116  1  0  0  0  0
M  END
$$$$
Target_lig_773
 OpenBabel04172506213D

 87 91  0  0  1  0  0  0  0  0999 V2000
    1.3412   -0.5356    0.6988 N   0  0  0  0  0  0  0  0  0  0  0  0
    2.3770    0.2463    0.0054 C   0  0  0  0  0  0  0  0  0  0  0  0
    2.8730   -0.2823   -1.3708 C   0  0  3  0  0  0  0  0  0  0  0  0
    1.8520   -0.2164   -2.3873 O   0  0  0  0  0  0  0  0  0  0  0  0
    0.8267   -1.2026   -2.2489 C   0  0  3  0  0  0  0  0  0  0  0  0
   -0.2077   -0.9626   -3.2193 O   0  0  0  0  0  0  0  0  0  0  0  0
   -1.1005   -2.0614   -3.3729 C   0  0  3  0  0  0  0  0  0  0  0  0
   -2.0260   -2.3462   -2.1734 C   0  0  3  0  0  0  0  0  0  0  0  0
   -3.1326   -1.3895   -2.0058 N   0  0  0  0  0  0  0  0  0  0  0  0
   -2.5200   -3.7928   -2.3245 C   0  0  0  0  0  0  0  0  0  0  0  0
   -3.0883   -4.1372   -3.6963 C   0  0  3  0  0  0  0  0  0  0  0  0
   -2.2325   -3.6155   -4.8763 C   0  0  3  0  0  0  0  0  0  0  0  0
   -1.8807   -2.0864   -4.6865 C   0  0  3  0  0  0  0  0  0  0  0  0
   -1.0703   -1.4266   -5.6585 O   0  0  0  0  0  0  0  0  0  0  0  0
   -3.0227   -3.9653   -6.0112 O   0  0  0  0  0  0  0  0  0  0  0  0
   -4.4695   -3.6324   -3.8894 N   0  0  0  0  0  0  0  0  0  0  0  0
    1.4692   -2.6313   -2.3076 C   0  0  3  0  0  0  0  0  0  0  0  0
    2.5366   -2.7748   -1.2244 C   0  0  3  0  0  0  0  0  0  0  0  0
    3.5802   -1.6586   -1.3617 C   0  0  3  0  0  0  0  0  0  0  0  0
    4.5910   -1.6818   -0.3460 O   0  0  0  0  0  0  0  0  0  0  0  0
    5.4580   -2.8304   -0.3527 C   0  0  0  0  0  0  0  0  0  0  0  0
    6.0468   -3.1035   -1.6537 N   0  0  0  0  0  0  0  0  0  0  0  0
    6.8874   -2.2300   -2.2366 N   0  0  0  0  0  0  0  0  0  0  0  0
    7.2349   -2.7351   -3.4142 N   0  0  0  0  0  0  0  0  0  0  0  0
    6.6031   -3.9411   -3.5716 C   0  0  0  0  0  0  0  0  0  0  0  0
    5.8655   -4.2037   -2.4419 C   0  0  0  0  0  0  0  0  0  0  0  0
    6.7950   -4.7936   -4.7644 C   0  0  0  0  0  0  0  0  0  0  0  0
    6.6345   -4.0255   -6.0590 C   0  0  0  0  0  0  0  0  0  0  0  0
    7.6303   -3.5191   -6.5748 O   0  0  0  0  0  0  0  0  0  0  0  0
    5.3351   -3.9961   -6.5717 N   0  0  0  0  0  0  0  0  0  0  0  0
    4.9710   -3.4233   -7.8175 C   0  0  0  0  0  0  0  0  0  0  0  0
    5.9317   -3.0672   -8.7674 C   0  0  0  0  0  0  0  0  0  0  0  0
    5.6025   -2.4114   -9.9389 C   0  0  0  0  0  0  0  0  0  0  0  0
    4.2727   -2.1564  -10.2112 C   0  0  0  0  0  0  0  0  0  0  0  0
    3.2553   -2.6033   -9.3506 C   0  0  0  0  0  0  0  0  0  0  0  0
    3.6164   -3.2099   -8.1339 C   0  0  0  0  0  0  0  0  0  0  0  0
    1.8923   -2.4119   -9.8020 C   0  0  0  0  0  0  0  0  0  0  0  0
    1.5505   -2.4185  -11.1430 C   0  0  0  0  0  0  0  0  0  0  0  0
   -0.0920   -2.0054  -11.3667 S   0  0  0  0  0  0  0  0  0  0  0  0
   -0.2552   -1.9841   -9.6795 C   0  0  0  0  0  0  0  0  0  0  0  0
    0.8214   -2.1894   -8.9543 N   0  0  0  0  0  0  0  0  0  0  0  0
   -1.5393   -1.7726   -9.2860 N   0  0  0  0  0  0  0  0  0  0  0  0
   -1.9470   -2.3294   -8.1114 C   0  0  0  0  0  0  0  0  0  0  0  0
   -1.2371   -3.1025   -7.4718 O   0  0  0  0  0  0  0  0  0  0  0  0
   -3.3480   -1.8816   -7.7312 C   0  0  0  0  0  0  0  0  0  0  0  0
    3.0991   -4.0902   -1.3795 O   0  0  0  0  0  0  0  0  0  0  0  0
    2.0907   -3.0342   -3.6219 N   0  0  0  0  0  0  0  0  0  0  0  0
    0.8941    0.0682    1.3922 H   0  0  0  0  0  0  0  0  0  0  0  0
    1.7838   -1.2744    1.2458 H   0  0  0  0  0  0  0  0  0  0  0  0
    3.2268    0.3538    0.6874 H   0  0  0  0  0  0  0  0  0  0  0  0
    1.9627    1.2481   -0.1572 H   0  0  0  0  0  0  0  0  0  0  0  0
    3.6309    0.4476   -1.6865 H   0  0  0  0  0  0  0  0  0  0  0  0
    0.3287   -1.0641   -1.2945 H   0  0  0  0  0  0  0  0  0  0  0  0
   -0.4635   -2.9287   -3.4989 H   0  0  0  0  0  0  0  0  0  0  0  0
   -1.4536   -2.3029   -1.2426 H   0  0  0  0  0  0  0  0  0  0  0  0
   -3.4159   -0.9804   -2.8966 H   0  0  0  0  0  0  0  0  0  0  0  0
   -2.7655   -0.5712   -1.5102 H   0  0  0  0  0  0  0  0  0  0  0  0
   -3.2338   -4.0485   -1.5349 H   0  0  0  0  0  0  0  0  0  0  0  0
   -1.6528   -4.4506   -2.1650 H   0  0  0  0  0  0  0  0  0  0  0  0
   -3.1514   -5.2286   -3.7933 H   0  0  0  0  0  0  0  0  0  0  0  0
   -1.2988   -4.1882   -4.9718 H   0  0  0  0  0  0  0  0  0  0  0  0
   -2.7958   -1.4945   -4.6594 H   0  0  0  0  0  0  0  0  0  0  0  0
   -0.4673   -2.0697   -6.0785 H   0  0  0  0  0  0  0  0  0  0  0  0
   -3.9490   -3.9165   -5.7016 H   0  0  0  0  0  0  0  0  0  0  0  0
   -4.5003   -2.6432   -3.6307 H   0  0  0  0  0  0  0  0  0  0  0  0
   -5.0808   -4.0839   -3.2095 H   0  0  0  0  0  0  0  0  0  0  0  0
    0.7271   -3.4046   -2.0822 H   0  0  0  0  0  0  0  0  0  0  0  0
    2.0874   -2.7786   -0.2308 H   0  0  0  0  0  0  0  0  0  0  0  0
    4.0725   -1.7524   -2.3369 H   0  0  0  0  0  0  0  0  0  0  0  0
    4.9351   -3.7178    0.0117 H   0  0  0  0  0  0  0  0  0  0  0  0
    6.2843   -2.6312    0.3361 H   0  0  0  0  0  0  0  0  0  0  0  0
    5.2463   -5.0391   -2.1537 H   0  0  0  0  0  0  0  0  0  0  0  0
    6.1155   -5.6521   -4.7593 H   0  0  0  0  0  0  0  0  0  0  0  0
    7.8136   -5.2028   -4.7500 H   0  0  0  0  0  0  0  0  0  0  0  0
    4.5777   -4.2798   -5.9622 H   0  0  0  0  0  0  0  0  0  0  0  0
    6.9939   -3.2876   -8.6214 H   0  0  0  0  0  0  0  0  0  0  0  0
    6.3794   -2.1117  -10.6372 H   0  0  0  0  0  0  0  0  0  0  0  0
    4.0441   -1.6107  -11.1255 H   0  0  0  0  0  0  0  0  0  0  0  0
    2.8230   -3.5107   -7.4458 H   0  0  0  0  0  0  0  0  0  0  0  0
    2.1708   -2.6108  -12.0004 H   0  0  0  0  0  0  0  0  0  0  0  0
   -2.2216   -1.5397   -9.9867 H   0  0  0  0  0  0  0  0  0  0  0  0
   -3.7773   -1.2393   -8.5040 H   0  0  0  0  0  0  0  0  0  0  0  0
   -3.3296   -1.2798   -6.8267 H   0  0  0  0  0  0  0  0  0  0  0  0
   -4.0191   -2.7338   -7.6191 H   0  0  0  0  0  0  0  0  0  0  0  0
    3.0161   -4.2664   -2.3446 H   0  0  0  0  0  0  0  0  0  0  0  0
    2.5831   -2.2076   -3.9885 H   0  0  0  0  0  0  0  0  0  0  0  0
    1.3520   -3.1561   -4.3201 H   0  0  0  0  0  0  0  0  0  0  0  0
  1  2  1  0  0  0  0
  1 48  1  0  0  0  0
  1 49  1  0  0  0  0
  2  3  1  0  0  0  0
  2 50  1  0  0  0  0
  2 51  1  0  0  0  0
  3  4  1  0  0  0  0
  3 19  1  0  0  0  0
  3 52  1  0  0  0  0
  4  5  1  0  0  0  0
  5  6  1  0  0  0  0
  5 17  1  0  0  0  0
  5 53  1  0  0  0  0
  6  7  1  0  0  0  0
  7  8  1  0  0  0  0
  7 13  1  0  0  0  0
  7 54  1  0  0  0  0
  8  9  1  0  0  0  0
  8 10  1  0  0  0  0
  8 55  1  0  0  0  0
  9 56  1  0  0  0  0
  9 57  1  0  0  0  0
 10 11  1  0  0  0  0
 10 58  1  0  0  0  0
 10 59  1  0  0  0  0
 11 12  1  0  0  0  0
 11 16  1  0  0  0  0
 11 60  1  0  0  0  0
 12 13  1  0  0  0  0
 12 15  1  0  0  0  0
 12 61  1  0  0  0  0
 13 14  1  0  0  0  0
 13 62  1  0  0  0  0
 14 63  1  0  0  0  0
 15 64  1  0  0  0  0
 16 65  1  0  0  0  0
 16 66  1  0  0  0  0
 17 18  1  0  0  0  0
 17 47  1  0  0  0  0
 17 67  1  0  0  0  0
 18 19  1  0  0  0  0
 18 46  1  0  0  0  0
 18 68  1  0  0  0  0
 19 20  1  0  0  0  0
 19 69  1  0  0  0  0
 20 21  1  0  0  0  0
 21 22  1  0  0  0  0
 21 70  1  0  0  0  0
 21 71  1  0  0  0  0
 22 23  1  0  0  0  0
 22 26  1  0  0  0  0
 23 24  2  0  0  0  0
 24 25  1  0  0  0  0
 25 26  2  0  0  0  0
 25 27  1  0  0  0  0
 26 72  1  0  0  0  0
 27 28  1  0  0  0  0
 27 73  1  0  0  0  0
 27 74  1  0  0  0  0
 28 29  2  0  0  0  0
 28 30  1  0  0  0  0
 30 31  1  0  0  0  0
 30 75  1  0  0  0  0
 31 32  1  0  0  0  0
 31 36  2  0  0  0  0
 32 33  2  0  0  0  0
 32 76  1  0  0  0  0
 33 34  1  0  0  0  0
 33 77  1  0  0  0  0
 34 35  2  0  0  0  0
 34 78  1  0  0  0  0
 35 36  1  0  0  0  0
 35 37  1  0  0  0  0
 36 79  1  0  0  0  0
 37 38  2  0  0  0  0
 37 41  1  0  0  0  0
 38 39  1  0  0  0  0
 38 80  1  0  0  0  0
 39 40  1  0  0  0  0
 40 41  2  0  0  0  0
 40 42  1  0  0  0  0
 42 43  1  0  0  0  0
 42 81  1  0  0  0  0
 43 44  2  0  0  0  0
 43 45  1  0  0  0  0
 45 82  1  0  0  0  0
 45 83  1  0  0  0  0
 45 84  1  0  0  0  0
 46 85  1  0  0  0  0
 47 86  1  0  0  0  0
 47 87  1  0  0  0  0
M  END
$$$$
Target_lig_774
 OpenBabel04172506213D

 64 67  0  0  1  0  0  0  0  0999 V2000
    4.4705   -0.7008   -1.5962 O   0  0  0  0  0  0  0  0  0  0  0  0
    4.0426   -1.6292   -0.8910 C   0  0  0  0  0  0  0  0  0  0  0  0
    2.9618   -1.3305    0.1308 C   0  0  0  0  0  0  0  0  0  0  0  0
    1.9781   -2.4179    0.3630 C   0  0  0  0  0  0  0  0  0  0  0  0
    2.3454   -3.7364    0.2952 N   0  0  0  0  0  0  0  0  0  0  0  0
    1.2755   -4.4803    0.4953 N   0  0  0  0  0  0  0  0  0  0  0  0
    0.2530   -3.6490    0.7486 N   0  0  0  0  0  0  0  0  0  0  0  0
    0.6476   -2.3414    0.7030 C   0  0  0  0  0  0  0  0  0  0  0  0
   -1.0758   -4.1600    1.0290 C   0  0  0  0  0  0  0  0  0  0  0  0
   -0.9480   -5.4157    1.6855 O   0  0  0  0  0  0  0  0  0  0  0  0
   -2.1804   -6.1003    1.9531 C   0  0  3  0  0  0  0  0  0  0  0  0
   -3.0290   -5.3036    2.9771 C   0  0  3  0  0  0  0  0  0  0  0  0
   -4.3895   -5.8107    3.1531 N   0  0  0  0  0  0  0  0  0  0  0  0
   -2.2583   -5.1796    4.3056 C   0  0  0  0  0  0  0  0  0  0  0  0
   -1.7529   -6.5080    4.8842 C   0  0  3  0  0  0  0  0  0  0  0  0
   -0.9799   -7.3324    3.8250 C   0  0  3  0  0  0  0  0  0  0  0  0
   -1.7813   -7.4836    2.5117 C   0  0  3  0  0  0  0  0  0  0  0  0
   -1.0120   -8.1837    1.5206 O   0  0  0  0  0  0  0  0  0  0  0  0
   -0.6707   -8.6246    4.3647 O   0  0  0  0  0  0  0  0  0  0  0  0
   -2.8329   -7.3078    5.4949 N   0  0  0  0  0  0  0  0  0  0  0  0
    4.5233   -2.9219   -0.9165 N   0  0  0  0  0  0  0  0  0  0  0  0
    5.5652   -3.4348   -1.7104 C   0  0  0  0  0  0  0  0  0  0  0  0
    6.5125   -2.6311   -2.3482 C   0  0  0  0  0  0  0  0  0  0  0  0
    7.5205   -3.2122   -3.1174 C   0  0  0  0  0  0  0  0  0  0  0  0
    7.6121   -4.5989   -3.2246 C   0  0  0  0  0  0  0  0  0  0  0  0
    6.6978   -5.4186   -2.5535 C   0  0  0  0  0  0  0  0  0  0  0  0
    5.6629   -4.8268   -1.8176 C   0  0  0  0  0  0  0  0  0  0  0  0
    6.8815   -6.8633   -2.5710 C   0  0  0  0  0  0  0  0  0  0  0  0
    5.8481   -7.7803   -2.5075 C   0  0  0  0  0  0  0  0  0  0  0  0
    6.4812   -9.3732   -2.5432 S   0  0  0  0  0  0  0  0  0  0  0  0
    8.0593   -8.7193   -2.5746 C   0  0  0  0  0  0  0  0  0  0  0  0
    8.1528   -7.4192   -2.6115 N   0  0  0  0  0  0  0  0  0  0  0  0
    9.0431   -9.6672   -2.5585 N   0  0  0  0  0  0  0  0  0  0  0  0
   10.3490   -9.3644   -2.2520 C   0  0  0  0  0  0  0  0  0  0  0  0
   10.8062   -8.2702   -1.9414 O   0  0  0  0  0  0  0  0  0  0  0  0
   11.2469  -10.5778   -2.2815 C   0  0  0  0  0  0  0  0  0  0  0  0
    2.4186   -0.4448   -0.2245 H   0  0  0  0  0  0  0  0  0  0  0  0
    3.4523   -1.0635    1.0733 H   0  0  0  0  0  0  0  0  0  0  0  0
   -0.0186   -1.5139    0.8940 H   0  0  0  0  0  0  0  0  0  0  0  0
   -1.6066   -4.2487    0.0765 H   0  0  0  0  0  0  0  0  0  0  0  0
   -1.5548   -3.4271    1.6840 H   0  0  0  0  0  0  0  0  0  0  0  0
   -2.7151   -6.2304    1.0035 H   0  0  0  0  0  0  0  0  0  0  0  0
   -3.1664   -4.2820    2.6100 H   0  0  0  0  0  0  0  0  0  0  0  0
   -4.4045   -6.7995    3.3854 H   0  0  0  0  0  0  0  0  0  0  0  0
   -4.9059   -5.7329    2.2752 H   0  0  0  0  0  0  0  0  0  0  0  0
   -2.8605   -4.6365    5.0445 H   0  0  0  0  0  0  0  0  0  0  0  0
   -1.3797   -4.5401    4.1314 H   0  0  0  0  0  0  0  0  0  0  0  0
   -1.0612   -6.2836    5.7059 H   0  0  0  0  0  0  0  0  0  0  0  0
   -0.0144   -6.8535    3.6198 H   0  0  0  0  0  0  0  0  0  0  0  0
   -2.6667   -8.1041    2.6817 H   0  0  0  0  0  0  0  0  0  0  0  0
   -0.1239   -7.7787    1.5162 H   0  0  0  0  0  0  0  0  0  0  0  0
   -1.3981   -8.8325    4.9842 H   0  0  0  0  0  0  0  0  0  0  0  0
   -3.4221   -7.7425    4.7908 H   0  0  0  0  0  0  0  0  0  0  0  0
   -3.4543   -6.6784    6.0101 H   0  0  0  0  0  0  0  0  0  0  0  0
    3.9712   -3.6125   -0.4108 H   0  0  0  0  0  0  0  0  0  0  0  0
    6.5097   -1.5558   -2.2294 H   0  0  0  0  0  0  0  0  0  0  0  0
    8.2544   -2.5789   -3.6096 H   0  0  0  0  0  0  0  0  0  0  0  0
    8.4171   -5.0387   -3.8121 H   0  0  0  0  0  0  0  0  0  0  0  0
    4.9359   -5.4534   -1.3051 H   0  0  0  0  0  0  0  0  0  0  0  0
    4.7835   -7.6026   -2.4519 H   0  0  0  0  0  0  0  0  0  0  0  0
    8.7409  -10.6237   -2.6481 H   0  0  0  0  0  0  0  0  0  0  0  0
   10.7115  -11.4802   -2.5893 H   0  0  0  0  0  0  0  0  0  0  0  0
   11.6558  -10.7432   -1.2808 H   0  0  0  0  0  0  0  0  0  0  0  0
   12.0613  -10.3998   -2.9892 H   0  0  0  0  0  0  0  0  0  0  0  0
  1  2  2  0  0  0  0
  2  3  1  0  0  0  0
  2 21  1  0  0  0  0
  3  4  1  0  0  0  0
  3 37  1  0  0  0  0
  3 38  1  0  0  0  0
  4  5  1  0  0  0  0
  4  8  2  0  0  0  0
  5  6  2  0  0  0  0
  6  7  1  0  0  0  0
  7  8  1  0  0  0  0
  7  9  1  0  0  0  0
  8 39  1  0  0  0  0
  9 10  1  0  0  0  0
  9 40  1  0  0  0  0
  9 41  1  0  0  0  0
 10 11  1  0  0  0  0
 11 12  1  0  0  0  0
 11 17  1  0  0  0  0
 11 42  1  0  0  0  0
 12 13  1  0  0  0  0
 12 14  1  0  0  0  0
 12 43  1  0  0  0  0
 13 44  1  0  0  0  0
 13 45  1  0  0  0  0
 14 15  1  0  0  0  0
 14 46  1  0  0  0  0
 14 47  1  0  0  0  0
 15 16  1  0  0  0  0
 15 20  1  0  0  0  0
 15 48  1  0  0  0  0
 16 17  1  0  0  0  0
 16 19  1  0  0  0  0
 16 49  1  0  0  0  0
 17 18  1  0  0  0  0
 17 50  1  0  0  0  0
 18 51  1  0  0  0  0
 19 52  1  0  0  0  0
 20 53  1  0  0  0  0
 20 54  1  0  0  0  0
 21 22  1  0  0  0  0
 21 55  1  0  0  0  0
 22 23  1  0  0  0  0
 22 27  2  0  0  0  0
 23 24  2  0  0  0  0
 23 56  1  0  0  0  0
 24 25  1  0  0  0  0
 24 57  1  0  0  0  0
 25 26  2  0  0  0  0
 25 58  1  0  0  0  0
 26 27  1  0  0  0  0
 26 28  1  0  0  0  0
 27 59  1  0  0  0  0
 28 29  2  0  0  0  0
 28 32  1  0  0  0  0
 29 30  1  0  0  0  0
 29 60  1  0  0  0  0
 30 31  1  0  0  0  0
 31 32  2  0  0  0  0
 31 33  1  0  0  0  0
 33 34  1  0  0  0  0
 33 61  1  0  0  0  0
 34 35  2  0  0  0  0
 34 36  1  0  0  0  0
 36 62  1  0  0  0  0
 36 63  1  0  0  0  0
 36 64  1  0  0  0  0
M  END
$$$$
Target_lig_775
 OpenBabel04172506213D

 78 80  0  0  1  0  0  0  0  0999 V2000
    1.0666    0.0066   -0.5650 C   0  0  0  0  0  0  0  0  0  0  0  0
    2.5195   -0.0026   -0.1626 C   0  0  0  0  0  0  0  0  0  0  0  0
    2.9105    1.3273    0.5979 C   0  0  3  0  0  0  0  0  0  0  0  0
    4.4426    1.3322    0.7570 C   0  0  0  0  0  0  0  0  0  0  0  0
    5.1474    2.5417    0.8587 C   0  0  0  0  0  0  0  0  0  0  0  0
    6.5305    2.5354    1.0639 C   0  0  0  0  0  0  0  0  0  0  0  0
    7.2236    1.3297    1.1356 C   0  0  0  0  0  0  0  0  0  0  0  0
    6.5433    0.1170    0.9983 C   0  0  0  0  0  0  0  0  0  0  0  0
    5.1548    0.0987    0.8136 C   0  0  0  0  0  0  0  0  0  0  0  0
    4.4713   -1.1333    0.7255 N   0  0  0  0  0  0  0  0  0  0  0  0
    3.0839   -1.1728    0.7255 C   0  0  0  0  0  0  0  0  0  0  0  0
    2.4875   -2.0740    1.4579 N   0  0  0  0  0  0  0  0  0  0  0  0
    1.0914   -1.8815    1.8764 C   0  0  0  0  0  0  0  0  0  0  0  0
    0.1502   -3.0533    2.1028 C   0  0  0  0  0  0  0  0  0  0  0  0
   -1.2892   -2.5359    2.4367 C   0  0  0  0  0  0  0  0  0  0  0  0
   -2.1790   -3.6726    2.6782 N   0  0  0  0  0  0  0  0  0  0  0  0
   -3.5433   -3.2517    3.0016 C   0  0  0  0  0  0  0  0  0  0  0  0
   -4.3877   -4.5047    3.2359 C   0  0  0  0  0  0  0  0  0  0  0  0
   -5.8302   -4.1402    3.5783 C   0  0  0  0  0  0  0  0  0  0  0  0
   -6.6545   -5.4030    3.8073 C   0  0  0  0  0  0  0  0  0  0  0  0
   -8.0283   -5.0370    4.1337 N   0  0  0  0  0  0  0  0  0  0  0  0
   -8.8282   -6.2402    4.3523 C   0  0  0  0  0  0  0  0  0  0  0  0
  -10.2651   -5.8564    4.6908 C   0  0  0  0  0  0  0  0  0  0  0  0
  -11.1003   -7.1112    4.9221 C   0  0  0  0  0  0  0  0  0  0  0  0
  -12.4744   -6.7498    5.2471 N   0  0  0  0  0  0  0  0  0  0  0  0
    2.1499    1.5306    1.9295 N   0  0  0  0  0  0  0  0  0  0  0  0
    2.7765    0.9953    3.1539 C   0  0  0  0  0  0  0  0  0  0  0  0
    1.1239    2.5120    2.1263 C   0  0  0  0  0  0  0  0  0  0  0  0
    0.7741    3.4271    1.1307 C   0  0  0  0  0  0  0  0  0  0  0  0
    0.0796    4.6127    1.2806 C   0  0  0  0  0  0  0  0  0  0  0  0
   -0.5974    4.8037    2.4826 C   0  0  0  0  0  0  0  0  0  0  0  0
   -0.4871    3.7981    3.4170 C   0  0  0  0  0  0  0  0  0  0  0  0
    0.4051    2.7075    3.2975 C   0  0  0  0  0  0  0  0  0  0  0  0
    3.1606   -0.1257   -1.5920 C   0  0  0  0  0  0  0  0  0  0  0  0
    0.5455    0.2402    0.3537 H   0  0  0  0  0  0  0  0  0  0  0  0
    0.6761   -0.9452   -0.9604 H   0  0  0  0  0  0  0  0  0  0  0  0
    0.7774    0.8431   -1.2174 H   0  0  0  0  0  0  0  0  0  0  0  0
    2.6636    2.1634   -0.0621 H   0  0  0  0  0  0  0  0  0  0  0  0
    4.6219    3.4920    0.8180 H   0  0  0  0  0  0  0  0  0  0  0  0
    7.0601    3.4749    1.2050 H   0  0  0  0  0  0  0  0  0  0  0  0
    8.2958    1.3304    1.3236 H   0  0  0  0  0  0  0  0  0  0  0  0
    7.1009   -0.8119    1.0766 H   0  0  0  0  0  0  0  0  0  0  0  0
    4.9698   -2.0040    0.8221 H   0  0  0  0  0  0  0  0  0  0  0  0
    0.5808   -1.2856    1.1665 H   0  0  0  0  0  0  0  0  0  0  0  0
    1.1491   -1.4110    2.8564 H   0  0  0  0  0  0  0  0  0  0  0  0
    0.5080   -3.6438    2.9447 H   0  0  0  0  0  0  0  0  0  0  0  0
    0.1079   -3.6923    1.2141 H   0  0  0  0  0  0  0  0  0  0  0  0
   -1.6818   -1.9241    1.6127 H   0  0  0  0  0  0  0  0  0  0  0  0
   -1.2750   -1.8983    3.3319 H   0  0  0  0  0  0  0  0  0  0  0  0
   -1.8073   -4.2224    3.4509 H   0  0  0  0  0  0  0  0  0  0  0  0
   -3.9760   -2.6746    2.1763 H   0  0  0  0  0  0  0  0  0  0  0  0
   -3.5612   -2.6252    3.9027 H   0  0  0  0  0  0  0  0  0  0  0  0
   -3.9589   -5.1004    4.0522 H   0  0  0  0  0  0  0  0  0  0  0  0
   -4.3745   -5.1350    2.3373 H   0  0  0  0  0  0  0  0  0  0  0  0
   -6.2648   -3.5509    2.7612 H   0  0  0  0  0  0  0  0  0  0  0  0
   -5.8488   -3.5129    4.4784 H   0  0  0  0  0  0  0  0  0  0  0  0
   -6.2154   -5.9783    4.6312 H   0  0  0  0  0  0  0  0  0  0  0  0
   -6.6300   -6.0269    2.9056 H   0  0  0  0  0  0  0  0  0  0  0  0
   -8.4312   -4.4923    3.3708 H   0  0  0  0  0  0  0  0  0  0  0  0
   -8.4037   -6.8219    5.1797 H   0  0  0  0  0  0  0  0  0  0  0  0
   -8.8173   -6.8698    3.4542 H   0  0  0  0  0  0  0  0  0  0  0  0
  -10.6972   -5.2667    3.8718 H   0  0  0  0  0  0  0  0  0  0  0  0
  -10.2793   -5.2253    5.5889 H   0  0  0  0  0  0  0  0  0  0  0  0
  -10.6760   -7.7053    5.7390 H   0  0  0  0  0  0  0  0  0  0  0  0
  -11.0984   -7.7359    4.0221 H   0  0  0  0  0  0  0  0  0  0  0  0
  -12.4876   -6.2004    6.1063 H   0  0  0  0  0  0  0  0  0  0  0  0
  -13.0100   -7.5939    5.4399 H   0  0  0  0  0  0  0  0  0  0  0  0
    3.6406    0.3498    2.9729 H   0  0  0  0  0  0  0  0  0  0  0  0
    2.0690    0.3647    3.7027 H   0  0  0  0  0  0  0  0  0  0  0  0
    3.1365    1.7938    3.8162 H   0  0  0  0  0  0  0  0  0  0  0  0
    1.0623    3.2903    0.0547 H   0  0  0  0  0  0  0  0  0  0  0  0
    0.0519    5.3418    0.4854 H   0  0  0  0  0  0  0  0  0  0  0  0
   -1.1999    5.6880    2.6021 H   0  0  0  0  0  0  0  0  0  0  0  0
   -1.1227    3.8721    4.3237 H   0  0  0  0  0  0  0  0  0  0  0  0
    0.4830    2.0147    4.1194 H   0  0  0  0  0  0  0  0  0  0  0  0
    2.8165    0.6900   -2.2386 H   0  0  0  0  0  0  0  0  0  0  0  0
    2.8343   -1.0701   -2.0509 H   0  0  0  0  0  0  0  0  0  0  0  0
    4.2542   -0.1259   -1.6293 H   0  0  0  0  0  0  0  0  0  0  0  0
  1  2  1  0  0  0  0
  1 35  1  0  0  0  0
  1 36  1  0  0  0  0
  1 37  1  0  0  0  0
  2  3  1  0  0  0  0
  2 11  1  0  0  0  0
  2 34  1  0  0  0  0
  3  4  1  0  0  0  0
  3 26  1  0  0  0  0
  3 38  1  0  0  0  0
  4  5  2  0  0  0  0
  4  9  1  0  0  0  0
  5  6  1  0  0  0  0
  5 39  1  0  0  0  0
  6  7  2  0  0  0  0
  6 40  1  0  0  0  0
  7  8  1  0  0  0  0
  7 41  1  0  0  0  0
  8  9  2  0  0  0  0
  8 42  1  0  0  0  0
  9 10  1  0  0  0  0
 10 11  1  0  0  0  0
 10 43  1  0  0  0  0
 11 12  2  3  0  0  0
 12 13  1  0  0  0  0
 13 14  1  0  0  0  0
 13 44  1  0  0  0  0
 13 45  1  0  0  0  0
 14 15  1  0  0  0  0
 14 46  1  0  0  0  0
 14 47  1  0  0  0  0
 15 16  1  0  0  0  0
 15 48  1  0  0  0  0
 15 49  1  0  0  0  0
 16 17  1  0  0  0  0
 16 50  1  0  0  0  0
 17 18  1  0  0  0  0
 17 51  1  0  0  0  0
 17 52  1  0  0  0  0
 18 19  1  0  0  0  0
 18 53  1  0  0  0  0
 18 54  1  0  0  0  0
 19 20  1  0  0  0  0
 19 55  1  0  0  0  0
 19 56  1  0  0  0  0
 20 21  1  0  0  0  0
 20 57  1  0  0  0  0
 20 58  1  0  0  0  0
 21 22  1  0  0  0  0
 21 59  1  0  0  0  0
 22 23  1  0  0  0  0
 22 60  1  0  0  0  0
 22 61  1  0  0  0  0
 23 24  1  0  0  0  0
 23 62  1  0  0  0  0
 23 63  1  0  0  0  0
 24 25  1  0  0  0  0
 24 64  1  0  0  0  0
 24 65  1  0  0  0  0
 25 66  1  0  0  0  0
 25 67  1  0  0  0  0
 26 27  1  0  0  0  0
 26 28  1  0  0  0  0
 27 68  1  0  0  0  0
 27 69  1  0  0  0  0
 27 70  1  0  0  0  0
 28 29  2  0  0  0  0
 28 33  1  0  0  0  0
 29 30  1  0  0  0  0
 29 71  1  0  0  0  0
 30 31  2  0  0  0  0
 30 72  1  0  0  0  0
 31 32  1  0  0  0  0
 31 73  1  0  0  0  0
 32 33  2  0  0  0  0
 32 74  1  0  0  0  0
 33 75  1  0  0  0  0
 34 76  1  0  0  0  0
 34 77  1  0  0  0  0
 34 78  1  0  0  0  0
M  END
$$$$
Target_lig_776
 OpenBabel04172506213D

 46 45  0  0  0  0  0  0  0  0999 V2000
    1.0226    1.1587    2.0955 C   0  0  0  0  0  0  0  0  0  0  0  0
    0.4761    1.1967    0.6641 C   0  0  0  0  0  0  0  0  0  0  0  0
   -1.0540    1.1890    0.6223 C   0  0  0  0  0  0  0  0  0  0  0  0
   -1.5877    2.3696    1.2975 N   0  0  0  0  0  0  0  0  0  0  0  0
   -3.0462    2.3586    1.3175 C   0  0  0  0  0  0  0  0  0  0  0  0
   -3.5412    3.5924    2.0686 C   0  0  0  0  0  0  0  0  0  0  0  0
   -5.0680    3.6273    2.1062 C   0  0  0  0  0  0  0  0  0  0  0  0
   -5.5619    4.8638    2.8530 C   0  0  0  0  0  0  0  0  0  0  0  0
   -7.0237    4.8748    2.8604 N   0  0  0  0  0  0  0  0  0  0  0  0
   -7.5224    6.0516    3.5693 C   0  0  0  0  0  0  0  0  0  0  0  0
   -9.0507    6.0451    3.5704 C   0  0  0  0  0  0  0  0  0  0  0  0
   -9.5901    7.2713    4.3083 C   0  0  0  0  0  0  0  0  0  0  0  0
  -11.1156    7.2858    4.3185 C   0  0  0  0  0  0  0  0  0  0  0  0
  -11.5949    8.4644    5.0299 N   0  0  0  0  0  0  0  0  0  0  0  0
    2.5461    1.1620    2.1070 C   0  0  0  0  0  0  0  0  0  0  0  0
    3.0354    1.1384    3.4805 N   0  0  0  0  0  0  0  0  0  0  0  0
    0.6459    0.2625    2.6044 H   0  0  0  0  0  0  0  0  0  0  0  0
    0.6561    2.0262    2.6583 H   0  0  0  0  0  0  0  0  0  0  0  0
    0.8447    0.3248    0.1101 H   0  0  0  0  0  0  0  0  0  0  0  0
    0.8554    2.0856    0.1441 H   0  0  0  0  0  0  0  0  0  0  0  0
   -1.4222    0.2752    1.1039 H   0  0  0  0  0  0  0  0  0  0  0  0
   -1.3823    1.1731   -0.4236 H   0  0  0  0  0  0  0  0  0  0  0  0
   -1.2527    3.2136    0.8343 H   0  0  0  0  0  0  0  0  0  0  0  0
   -3.4105    1.4566    1.8235 H   0  0  0  0  0  0  0  0  0  0  0  0
   -3.4417    2.3613    0.2951 H   0  0  0  0  0  0  0  0  0  0  0  0
   -3.1654    4.5029    1.5844 H   0  0  0  0  0  0  0  0  0  0  0  0
   -3.1488    3.5873    3.0939 H   0  0  0  0  0  0  0  0  0  0  0  0
   -5.4431    2.7195    2.5946 H   0  0  0  0  0  0  0  0  0  0  0  0
   -5.4589    3.6303    1.0810 H   0  0  0  0  0  0  0  0  0  0  0  0
   -5.1825    5.7646    2.3560 H   0  0  0  0  0  0  0  0  0  0  0  0
   -5.1753    4.8526    3.8793 H   0  0  0  0  0  0  0  0  0  0  0  0
   -7.3694    4.0287    3.3128 H   0  0  0  0  0  0  0  0  0  0  0  0
   -7.1644    6.9634    3.0773 H   0  0  0  0  0  0  0  0  0  0  0  0
   -7.1557    6.0548    4.6024 H   0  0  0  0  0  0  0  0  0  0  0  0
   -9.4218    5.1325    4.0539 H   0  0  0  0  0  0  0  0  0  0  0  0
   -9.4249    6.0409    2.5388 H   0  0  0  0  0  0  0  0  0  0  0  0
   -9.2135    8.1820    3.8251 H   0  0  0  0  0  0  0  0  0  0  0  0
   -9.2091    7.2718    5.3376 H   0  0  0  0  0  0  0  0  0  0  0  0
  -11.5009    6.3833    4.8069 H   0  0  0  0  0  0  0  0  0  0  0  0
  -11.5010    7.3023    3.2941 H   0  0  0  0  0  0  0  0  0  0  0  0
  -11.2736    8.4381    5.9964 H   0  0  0  0  0  0  0  0  0  0  0  0
  -12.6128    8.4455    5.0661 H   0  0  0  0  0  0  0  0  0  0  0  0
    2.9276    2.0571    1.6027 H   0  0  0  0  0  0  0  0  0  0  0  0
    2.9330    0.2869    1.5742 H   0  0  0  0  0  0  0  0  0  0  0  0
    2.6735    1.9482    3.9852 H   0  0  0  0  0  0  0  0  0  0  0  0
    4.0494    1.2307    3.4811 H   0  0  0  0  0  0  0  0  0  0  0  0
  1  2  1  0  0  0  0
  1 15  1  0  0  0  0
  1 17  1  0  0  0  0
  1 18  1  0  0  0  0
  2  3  1  0  0  0  0
  2 19  1  0  0  0  0
  2 20  1  0  0  0  0
  3  4  1  0  0  0  0
  3 21  1  0  0  0  0
  3 22  1  0  0  0  0
  4  5  1  0  0  0  0
  4 23  1  0  0  0  0
  5  6  1  0  0  0  0
  5 24  1  0  0  0  0
  5 25  1  0  0  0  0
  6  7  1  0  0  0  0
  6 26  1  0  0  0  0
  6 27  1  0  0  0  0
  7  8  1  0  0  0  0
  7 28  1  0  0  0  0
  7 29  1  0  0  0  0
  8  9  1  0  0  0  0
  8 30  1  0  0  0  0
  8 31  1  0  0  0  0
  9 10  1  0  0  0  0
  9 32  1  0  0  0  0
 10 11  1  0  0  0  0
 10 33  1  0  0  0  0
 10 34  1  0  0  0  0
 11 12  1  0  0  0  0
 11 35  1  0  0  0  0
 11 36  1  0  0  0  0
 12 13  1  0  0  0  0
 12 37  1  0  0  0  0
 12 38  1  0  0  0  0
 13 14  1  0  0  0  0
 13 39  1  0  0  0  0
 13 40  1  0  0  0  0
 14 41  1  0  0  0  0
 14 42  1  0  0  0  0
 15 16  1  0  0  0  0
 15 43  1  0  0  0  0
 15 44  1  0  0  0  0
 16 45  1  0  0  0  0
 16 46  1  0  0  0  0
M  END
$$$$
Target_lig_777
 OpenBabel04172506213D

 56 58  0  0  1  0  0  0  0  0999 V2000
    3.6597    0.7862   -1.4519 N   0  0  0  0  0  0  0  0  0  0  0  0
    3.9307    1.7567   -0.4000 C   0  0  0  0  0  0  0  0  0  0  0  0
    4.0403    1.0914    0.9682 C   0  0  0  0  0  0  0  0  0  0  0  0
    5.1821    0.0781    1.0945 C   0  0  0  0  0  0  0  0  0  0  0  0
    5.1467   -0.5397    2.4952 C   0  0  0  0  0  0  0  0  0  0  0  0
    6.2260   -1.5170    2.6728 N   0  0  0  0  0  0  0  0  0  0  0  0
    6.8945   -1.6686    3.9038 C   0  0  0  0  0  0  0  0  0  0  0  0
    6.3317   -2.1885    5.0319 C   0  0  0  0  0  0  0  0  0  0  0  0
    4.9732   -2.7640    4.8731 C   0  0  0  0  0  0  0  0  0  0  0  0
    3.9484   -2.1133    4.7489 O   0  0  0  0  0  0  0  0  0  0  0  0
    4.9595   -4.2322    4.9822 C   0  0  0  0  0  0  0  0  0  0  0  0
    6.0142   -4.8726    5.5102 C   0  0  0  0  0  0  0  0  0  0  0  0
    7.3115   -4.2755    6.0901 C   0  0  3  0  0  0  0  0  0  0  0  0
    7.0372   -2.7822    6.2555 C   0  0  0  0  0  0  0  0  0  0  0  0
    7.3298   -2.1189    7.2455 O   0  0  0  0  0  0  0  0  0  0  0  0
    8.6067   -4.3010    5.2586 C   0  0  0  0  0  0  0  0  0  0  0  0
    7.5748   -5.3043    7.1936 C   0  0  0  0  0  0  0  0  0  0  0  0
    8.7128   -5.5042    7.9686 C   0  0  0  0  0  0  0  0  0  0  0  0
    9.5564   -4.4717    8.2569 O   0  0  0  0  0  0  0  0  0  0  0  0
    9.1015   -6.8180    8.3314 C   0  0  0  0  0  0  0  0  0  0  0  0
   10.4934   -7.0854    8.8537 C   0  0  0  0  0  0  0  0  0  0  0  0
    8.2271   -7.9064    8.0725 C   0  0  0  0  0  0  0  0  0  0  0  0
    7.0142   -7.7250    7.4096 C   0  0  0  0  0  0  0  0  0  0  0  0
    6.7679   -6.4339    6.9196 C   0  0  0  0  0  0  0  0  0  0  0  0
    5.8327   -6.1793    5.9421 O   0  0  0  0  0  0  0  0  0  0  0  0
    6.0812   -8.8509    7.0580 C   0  0  0  0  0  0  0  0  0  0  0  0
    5.4040   -8.8002    6.0322 O   0  0  0  0  0  0  0  0  0  0  0  0
    5.9147  -10.0290    8.0005 C   0  0  0  0  0  0  0  0  0  0  0  0
    8.6132   -9.1931    8.3536 O   0  0  0  0  0  0  0  0  0  0  0  0
    8.3627   -1.3178    3.7777 C   0  0  0  0  0  0  0  0  0  0  0  0
    3.4431    1.2794   -2.3175 H   0  0  0  0  0  0  0  0  0  0  0  0
    2.8251    0.2488   -1.2174 H   0  0  0  0  0  0  0  0  0  0  0  0
    3.1136    2.4865   -0.3699 H   0  0  0  0  0  0  0  0  0  0  0  0
    4.8506    2.3027   -0.6330 H   0  0  0  0  0  0  0  0  0  0  0  0
    3.0899    0.5969    1.2063 H   0  0  0  0  0  0  0  0  0  0  0  0
    4.1808    1.8761    1.7222 H   0  0  0  0  0  0  0  0  0  0  0  0
    6.1461    0.5729    0.9201 H   0  0  0  0  0  0  0  0  0  0  0  0
    5.0897   -0.7120    0.3390 H   0  0  0  0  0  0  0  0  0  0  0  0
    4.1802   -1.0327    2.6299 H   0  0  0  0  0  0  0  0  0  0  0  0
    5.2412    0.2561    3.2426 H   0  0  0  0  0  0  0  0  0  0  0  0
    6.8727   -1.4801    1.8830 H   0  0  0  0  0  0  0  0  0  0  0  0
    4.0268   -4.7387    4.7521 H   0  0  0  0  0  0  0  0  0  0  0  0
    8.5022   -3.8016    4.3046 H   0  0  0  0  0  0  0  0  0  0  0  0
    8.9748   -5.3069    5.0499 H   0  0  0  0  0  0  0  0  0  0  0  0
    9.4014   -3.7641    5.8053 H   0  0  0  0  0  0  0  0  0  0  0  0
    9.0430   -3.6415    8.2923 H   0  0  0  0  0  0  0  0  0  0  0  0
   11.1290   -6.1966    8.8544 H   0  0  0  0  0  0  0  0  0  0  0  0
   10.9938   -7.8145    8.2019 H   0  0  0  0  0  0  0  0  0  0  0  0
   10.4546   -7.4837    9.8713 H   0  0  0  0  0  0  0  0  0  0  0  0
    6.4915   -9.9368    8.9127 H   0  0  0  0  0  0  0  0  0  0  0  0
    6.2129  -10.9261    7.4597 H   0  0  0  0  0  0  0  0  0  0  0  0
    4.8642  -10.0929    8.2807 H   0  0  0  0  0  0  0  0  0  0  0  0
    9.4496   -9.2092    8.8438 H   0  0  0  0  0  0  0  0  0  0  0  0
    8.4809   -0.4155    3.1646 H   0  0  0  0  0  0  0  0  0  0  0  0
    8.8911   -2.1116    3.2385 H   0  0  0  0  0  0  0  0  0  0  0  0
    8.8428   -1.1396    4.7394 H   0  0  0  0  0  0  0  0  0  0  0  0
  1  2  1  0  0  0  0
  1 31  1  0  0  0  0
  1 32  1  0  0  0  0
  2  3  1  0  0  0  0
  2 33  1  0  0  0  0
  2 34  1  0  0  0  0
  3  4  1  0  0  0  0
  3 35  1  0  0  0  0
  3 36  1  0  0  0  0
  4  5  1  0  0  0  0
  4 37  1  0  0  0  0
  4 38  1  0  0  0  0
  5  6  1  0  0  0  0
  5 39  1  0  0  0  0
  5 40  1  0  0  0  0
  6  7  1  0  0  0  0
  6 41  1  0  0  0  0
  7  8  2  0  0  0  0
  7 30  1  0  0  0  0
  8  9  1  0  0  0  0
  8 14  1  0  0  0  0
  9 10  2  0  0  0  0
  9 11  1  0  0  0  0
 11 12  2  0  0  0  0
 11 42  1  0  0  0  0
 12 13  1  0  0  0  0
 12 25  1  0  0  0  0
 13 14  1  0  0  0  0
 13 16  1  0  0  0  0
 13 17  1  0  0  0  0
 14 15  2  0  0  0  0
 16 43  1  0  0  0  0
 16 44  1  0  0  0  0
 16 45  1  0  0  0  0
 17 18  1  0  0  0  0
 17 24  2  0  0  0  0
 18 19  1  0  0  0  0
 18 20  2  0  0  0  0
 19 46  1  0  0  0  0
 20 21  1  0  0  0  0
 20 22  1  0  0  0  0
 21 47  1  0  0  0  0
 21 48  1  0  0  0  0
 21 49  1  0  0  0  0
 22 23  2  0  0  0  0
 22 29  1  0  0  0  0
 23 24  1  0  0  0  0
 23 26  1  0  0  0  0
 24 25  1  0  0  0  0
 26 27  2  0  0  0  0
 26 28  1  0  0  0  0
 28 50  1  0  0  0  0
 28 51  1  0  0  0  0
 28 52  1  0  0  0  0
 29 53  1  0  0  0  0
 30 54  1  0  0  0  0
 30 55  1  0  0  0  0
 30 56  1  0  0  0  0
M  END
$$$$
Target_lig_1262
 OpenBabel04172506213D

 80 85  0  0  0  0  0  0  0  0999 V2000
    1.5937   -2.6373   -1.1260 C   0  0  0  0  0  0  0  0  0  0  0  0
    0.5561   -1.6175   -0.9960 N   0  0  0  0  0  0  0  0  0  0  0  0
   -0.7505   -2.1479   -1.4420 C   0  0  0  0  0  0  0  0  0  0  0  0
   -1.8999   -1.1273   -1.2854 C   0  0  0  0  0  0  0  0  0  0  0  0
   -1.9510   -0.6900    0.1140 N   0  0  0  0  0  0  0  0  0  0  0  0
   -0.6772   -0.1284    0.5963 C   0  0  0  0  0  0  0  0  0  0  0  0
    0.4490   -1.1657    0.4083 C   0  0  0  0  0  0  0  0  0  0  0  0
   -3.1354   -0.3530    0.7415 C   0  0  0  0  0  0  0  0  0  0  0  0
   -4.2955   -0.0176    0.0245 C   0  0  0  0  0  0  0  0  0  0  0  0
   -5.4692    0.2384    0.7402 C   0  0  0  0  0  0  0  0  0  0  0  0
   -5.5379    0.1910    2.1243 C   0  0  0  0  0  0  0  0  0  0  0  0
   -4.3950   -0.1416    2.8534 C   0  0  0  0  0  0  0  0  0  0  0  0
   -3.2156   -0.4127    2.1447 C   0  0  0  0  0  0  0  0  0  0  0  0
   -6.8029    0.4920    2.5609 N   0  0  0  0  0  0  0  0  0  0  0  0
   -7.5250    0.6817    1.4744 C   0  0  0  0  0  0  0  0  0  0  0  0
   -6.7408    0.5610    0.3499 N   0  0  0  0  0  0  0  0  0  0  0  0
   -8.9432    1.0058    1.4498 C   0  0  0  0  0  0  0  0  0  0  0  0
   -9.4737    1.7459    2.5190 C   0  0  0  0  0  0  0  0  0  0  0  0
  -10.8364    2.0426    2.4669 C   0  0  0  0  0  0  0  0  0  0  0  0
  -11.6722    1.6272    1.4410 C   0  0  0  0  0  0  0  0  0  0  0  0
  -11.1358    0.8716    0.3875 C   0  0  0  0  0  0  0  0  0  0  0  0
   -9.7668    0.5715    0.4030 C   0  0  0  0  0  0  0  0  0  0  0  0
  -12.9585    2.0488    1.6599 N   0  0  0  0  0  0  0  0  0  0  0  0
  -12.9315    2.7446    2.7835 C   0  0  0  0  0  0  0  0  0  0  0  0
  -11.6589    2.7416    3.3094 N   0  0  0  0  0  0  0  0  0  0  0  0
  -14.0736    3.3941    3.4289 C   0  0  0  0  0  0  0  0  0  0  0  0
  -15.3646    2.8891    3.2104 C   0  0  0  0  0  0  0  0  0  0  0  0
  -16.4660    3.4588    3.8557 C   0  0  0  0  0  0  0  0  0  0  0  0
  -16.2877    4.5754    4.6746 C   0  0  0  0  0  0  0  0  0  0  0  0
  -15.0145    5.0999    4.8843 C   0  0  0  0  0  0  0  0  0  0  0  0
  -13.9109    4.5069    4.2695 C   0  0  0  0  0  0  0  0  0  0  0  0
  -17.7593    3.0254    3.7452 O   0  0  0  0  0  0  0  0  0  0  0  0
  -17.9316    1.6319    3.4774 C   0  0  0  0  0  0  0  0  0  0  0  0
  -19.2488    1.1785    4.1014 C   0  0  0  0  0  0  0  0  0  0  0  0
  -20.4694    1.9102    3.5406 C   0  0  0  0  0  0  0  0  0  0  0  0
  -21.7480    1.4296    4.2028 C   0  0  0  0  0  0  0  0  0  0  0  0
  -21.7759    0.6041    5.1108 O   0  0  0  0  0  0  0  0  0  0  0  0
  -22.8855    2.0186    3.6896 N   0  0  0  0  0  0  0  0  0  0  0  0
  -24.2023    1.7059    4.2098 C   0  0  0  0  0  0  0  0  0  0  0  0
  -24.5788    2.5523    5.4247 C   0  0  0  0  0  0  0  0  0  0  0  0
  -24.6888    4.0345    5.0802 C   0  0  0  0  0  0  0  0  0  0  0  0
  -25.1246    4.7709    6.2723 N   0  0  0  0  0  0  0  0  0  0  0  0
  -25.2104    6.0041    6.1313 N   0  3  0  0  0  0  0  0  0  0  0  0
  -25.2889    7.1319    5.9883 N   0  5  0  0  0  0  0  0  0  0  0  0
    1.6926   -2.9493   -2.1709 H   0  0  0  0  0  0  0  0  0  0  0  0
    1.3841   -3.5252   -0.5184 H   0  0  0  0  0  0  0  0  0  0  0  0
    2.5653   -2.2331   -0.8230 H   0  0  0  0  0  0  0  0  0  0  0  0
   -1.0067   -3.0489   -0.8656 H   0  0  0  0  0  0  0  0  0  0  0  0
   -0.6911   -2.4412   -2.4960 H   0  0  0  0  0  0  0  0  0  0  0  0
   -2.8278   -1.6249   -1.5896 H   0  0  0  0  0  0  0  0  0  0  0  0
   -1.7413   -0.2663   -1.9474 H   0  0  0  0  0  0  0  0  0  0  0  0
   -0.7049    0.1647    1.6506 H   0  0  0  0  0  0  0  0  0  0  0  0
   -0.4448    0.7821    0.0278 H   0  0  0  0  0  0  0  0  0  0  0  0
    0.2533   -2.0206    1.0709 H   0  0  0  0  0  0  0  0  0  0  0  0
    1.3952   -0.7125    0.7249 H   0  0  0  0  0  0  0  0  0  0  0  0
   -4.2817    0.0501   -1.0565 H   0  0  0  0  0  0  0  0  0  0  0  0
   -4.4197   -0.2135    3.9344 H   0  0  0  0  0  0  0  0  0  0  0  0
   -2.3400   -0.7238    2.7115 H   0  0  0  0  0  0  0  0  0  0  0  0
   -7.0543    0.6944   -0.5992 H   0  0  0  0  0  0  0  0  0  0  0  0
   -8.8496    2.0743    3.3458 H   0  0  0  0  0  0  0  0  0  0  0  0
  -11.7787    0.5272   -0.4149 H   0  0  0  0  0  0  0  0  0  0  0  0
   -9.3676   -0.0344   -0.4042 H   0  0  0  0  0  0  0  0  0  0  0  0
  -11.3811    3.1626    4.1818 H   0  0  0  0  0  0  0  0  0  0  0  0
  -15.4858    2.0458    2.5342 H   0  0  0  0  0  0  0  0  0  0  0  0
  -17.1467    5.0304    5.1601 H   0  0  0  0  0  0  0  0  0  0  0  0
  -14.8863    5.9667    5.5270 H   0  0  0  0  0  0  0  0  0  0  0  0
  -12.9330    4.9478    4.4411 H   0  0  0  0  0  0  0  0  0  0  0  0
  -17.1288    1.0325    3.9256 H   0  0  0  0  0  0  0  0  0  0  0  0
  -17.9413    1.4711    2.3938 H   0  0  0  0  0  0  0  0  0  0  0  0
  -19.2029    1.3511    5.1847 H   0  0  0  0  0  0  0  0  0  0  0  0
  -19.3629    0.0985    3.9521 H   0  0  0  0  0  0  0  0  0  0  0  0
  -20.5464    1.7366    2.4615 H   0  0  0  0  0  0  0  0  0  0  0  0
  -20.3830    2.9893    3.7128 H   0  0  0  0  0  0  0  0  0  0  0  0
  -22.7945    2.7311    2.9761 H   0  0  0  0  0  0  0  0  0  0  0  0
  -24.2290    0.6457    4.4856 H   0  0  0  0  0  0  0  0  0  0  0  0
  -24.9189    1.8567    3.3956 H   0  0  0  0  0  0  0  0  0  0  0  0
  -23.8457    2.4135    6.2290 H   0  0  0  0  0  0  0  0  0  0  0  0
  -25.5423    2.1996    5.8156 H   0  0  0  0  0  0  0  0  0  0  0  0
  -25.4159    4.1776    4.2715 H   0  0  0  0  0  0  0  0  0  0  0  0
  -23.7196    4.4183    4.7401 H   0  0  0  0  0  0  0  0  0  0  0  0
  1  2  1  0  0  0  0
  1 45  1  0  0  0  0
  1 46  1  0  0  0  0
  1 47  1  0  0  0  0
  2  3  1  0  0  0  0
  2  7  1  0  0  0  0
  3  4  1  0  0  0  0
  3 48  1  0  0  0  0
  3 49  1  0  0  0  0
  4  5  1  0  0  0  0
  4 50  1  0  0  0  0
  4 51  1  0  0  0  0
  5  6  1  0  0  0  0
  5  8  1  0  0  0  0
  6  7  1  0  0  0  0
  6 52  1  0  0  0  0
  6 53  1  0  0  0  0
  7 54  1  0  0  0  0
  7 55  1  0  0  0  0
  8  9  2  0  0  0  0
  8 13  1  0  0  0  0
  9 10  1  0  0  0  0
  9 56  1  0  0  0  0
 10 11  2  0  0  0  0
 10 16  1  0  0  0  0
 11 12  1  0  0  0  0
 11 14  1  0  0  0  0
 12 13  2  0  0  0  0
 12 57  1  0  0  0  0
 13 58  1  0  0  0  0
 14 15  2  0  0  0  0
 15 16  1  0  0  0  0
 15 17  1  0  0  0  0
 16 59  1  0  0  0  0
 17 18  2  0  0  0  0
 17 22  1  0  0  0  0
 18 19  1  0  0  0  0
 18 60  1  0  0  0  0
 19 20  2  0  0  0  0
 19 25  1  0  0  0  0
 20 21  1  0  0  0  0
 20 23  1  0  0  0  0
 21 22  2  0  0  0  0
 21 61  1  0  0  0  0
 22 62  1  0  0  0  0
 23 24  2  0  0  0  0
 24 25  1  0  0  0  0
 24 26  1  0  0  0  0
 25 63  1  0  0  0  0
 26 27  2  0  0  0  0
 26 31  1  0  0  0  0
 27 28  1  0  0  0  0
 27 64  1  0  0  0  0
 28 29  2  0  0  0  0
 28 32  1  0  0  0  0
 29 30  1  0  0  0  0
 29 65  1  0  0  0  0
 30 31  2  0  0  0  0
 30 66  1  0  0  0  0
 31 67  1  0  0  0  0
 32 33  1  0  0  0  0
 33 34  1  0  0  0  0
 33 68  1  0  0  0  0
 33 69  1  0  0  0  0
 34 35  1  0  0  0  0
 34 70  1  0  0  0  0
 34 71  1  0  0  0  0
 35 36  1  0  0  0  0
 35 72  1  0  0  0  0
 35 73  1  0  0  0  0
 36 37  2  0  0  0  0
 36 38  1  0  0  0  0
 38 39  1  0  0  0  0
 38 74  1  0  0  0  0
 39 40  1  0  0  0  0
 39 75  1  0  0  0  0
 39 76  1  0  0  0  0
 40 41  1  0  0  0  0
 40 77  1  0  0  0  0
 40 78  1  0  0  0  0
 41 42  1  0  0  0  0
 41 79  1  0  0  0  0
 41 80  1  0  0  0  0
 42 43  2  0  0  0  0
 43 44  2  0  0  0  0
M  CHG  2  43   1  44  -1
M  END
$$$$
Target_lig_1263
 OpenBabel04172506213D

 80 85  0  0  0  0  0  0  0  0999 V2000
    0.7589   -2.6253   -2.5699 C   0  0  0  0  0  0  0  0  0  0  0  0
    0.1385   -1.7072   -1.6257 N   0  0  0  0  0  0  0  0  0  0  0  0
   -1.0457   -1.0585   -2.2220 C   0  0  0  0  0  0  0  0  0  0  0  0
   -1.6543   -0.0250   -1.2574 C   0  0  0  0  0  0  0  0  0  0  0  0
   -1.9972   -0.6862    0.0074 N   0  0  0  0  0  0  0  0  0  0  0  0
   -0.9009   -1.4449    0.6280 C   0  0  0  0  0  0  0  0  0  0  0  0
   -0.2919   -2.4176   -0.4039 C   0  0  0  0  0  0  0  0  0  0  0  0
   -3.1658   -0.3931    0.6810 C   0  0  0  0  0  0  0  0  0  0  0  0
   -4.3461   -0.0785   -0.0152 C   0  0  0  0  0  0  0  0  0  0  0  0
   -5.5014    0.1911    0.7184 C   0  0  0  0  0  0  0  0  0  0  0  0
   -5.5400    0.1627    2.1013 C   0  0  0  0  0  0  0  0  0  0  0  0
   -4.3861   -0.1598    2.8100 C   0  0  0  0  0  0  0  0  0  0  0  0
   -3.2147   -0.4353    2.0822 C   0  0  0  0  0  0  0  0  0  0  0  0
   -6.7916    0.4917    2.5606 N   0  0  0  0  0  0  0  0  0  0  0  0
   -7.5292    0.6840    1.4861 C   0  0  0  0  0  0  0  0  0  0  0  0
   -6.7741    0.5246    0.3498 N   0  0  0  0  0  0  0  0  0  0  0  0
   -8.9407    1.0333    1.4706 C   0  0  0  0  0  0  0  0  0  0  0  0
   -9.4657    1.7911    2.5281 C   0  0  0  0  0  0  0  0  0  0  0  0
  -10.8292    2.0752    2.4736 C   0  0  0  0  0  0  0  0  0  0  0  0
  -11.6640    1.6528    1.4509 C   0  0  0  0  0  0  0  0  0  0  0  0
  -11.1292    0.8979    0.3999 C   0  0  0  0  0  0  0  0  0  0  0  0
   -9.7647    0.5909    0.4262 C   0  0  0  0  0  0  0  0  0  0  0  0
  -12.9526    2.0610    1.6631 N   0  0  0  0  0  0  0  0  0  0  0  0
  -12.9286    2.7577    2.7827 C   0  0  0  0  0  0  0  0  0  0  0  0
  -11.6598    2.7660    3.3189 N   0  0  0  0  0  0  0  0  0  0  0  0
  -14.0709    3.3870    3.4346 C   0  0  0  0  0  0  0  0  0  0  0  0
  -15.3599    2.8870    3.2188 C   0  0  0  0  0  0  0  0  0  0  0  0
  -16.4459    3.3919    3.9379 C   0  0  0  0  0  0  0  0  0  0  0  0
  -16.2392    4.4284    4.8523 C   0  0  0  0  0  0  0  0  0  0  0  0
  -14.9560    4.9265    5.0770 C   0  0  0  0  0  0  0  0  0  0  0  0
  -13.8828    4.4441    4.3333 C   0  0  0  0  0  0  0  0  0  0  0  0
  -17.7316    2.9241    3.8361 O   0  0  0  0  0  0  0  0  0  0  0  0
  -17.8472    1.5325    3.5066 C   0  0  0  0  0  0  0  0  0  0  0  0
  -19.1244    0.9661    4.1218 C   0  0  0  0  0  0  0  0  0  0  0  0
  -20.3938    1.6661    3.6154 C   0  0  0  0  0  0  0  0  0  0  0  0
  -21.6311    1.0668    4.2683 C   0  0  0  0  0  0  0  0  0  0  0  0
  -21.5730    0.1498    5.0756 O   0  0  0  0  0  0  0  0  0  0  0  0
  -22.8451    1.6142    3.8824 N   0  0  0  0  0  0  0  0  0  0  0  0
  -24.0900    1.1074    4.4560 C   0  0  0  0  0  0  0  0  0  0  0  0
  -24.4980    1.8272    5.7458 C   0  0  0  0  0  0  0  0  0  0  0  0
  -24.7383    3.3195    5.5182 C   0  0  0  0  0  0  0  0  0  0  0  0
  -25.1390    3.9609    6.7790 N   0  0  0  0  0  0  0  0  0  0  0  0
  -25.3501    5.1802    6.7187 N   0  3  0  0  0  0  0  0  0  0  0  0
  -25.5568    6.3120    6.6767 N   0  5  0  0  0  0  0  0  0  0  0  0
    1.1042   -2.0810   -3.4557 H   0  0  0  0  0  0  0  0  0  0  0  0
    0.0742   -3.4163   -2.8911 H   0  0  0  0  0  0  0  0  0  0  0  0
    1.6442   -3.0889   -2.1221 H   0  0  0  0  0  0  0  0  0  0  0  0
   -1.8080   -1.8100   -2.4742 H   0  0  0  0  0  0  0  0  0  0  0  0
   -0.7712   -0.5458   -3.1503 H   0  0  0  0  0  0  0  0  0  0  0  0
   -2.5135    0.4416   -1.7430 H   0  0  0  0  0  0  0  0  0  0  0  0
   -0.9311    0.7803   -1.0714 H   0  0  0  0  0  0  0  0  0  0  0  0
   -1.2533   -2.0504    1.4718 H   0  0  0  0  0  0  0  0  0  0  0  0
   -0.1290   -0.7631    1.0072 H   0  0  0  0  0  0  0  0  0  0  0  0
   -1.0432   -3.1800   -0.6573 H   0  0  0  0  0  0  0  0  0  0  0  0
    0.5570   -2.9321    0.0576 H   0  0  0  0  0  0  0  0  0  0  0  0
   -4.3708   -0.0725   -1.1000 H   0  0  0  0  0  0  0  0  0  0  0  0
   -4.3766   -0.1914    3.8913 H   0  0  0  0  0  0  0  0  0  0  0  0
   -2.3072   -0.6520    2.6398 H   0  0  0  0  0  0  0  0  0  0  0  0
   -7.1054    0.6538   -0.5941 H   0  0  0  0  0  0  0  0  0  0  0  0
   -8.8424    2.1315    3.3504 H   0  0  0  0  0  0  0  0  0  0  0  0
  -11.7721    0.5483   -0.3991 H   0  0  0  0  0  0  0  0  0  0  0  0
   -9.3690   -0.0306   -0.3706 H   0  0  0  0  0  0  0  0  0  0  0  0
  -11.3906    3.1953    4.1889 H   0  0  0  0  0  0  0  0  0  0  0  0
  -15.4888    2.0765    2.5040 H   0  0  0  0  0  0  0  0  0  0  0  0
  -17.0748    4.8334    5.4160 H   0  0  0  0  0  0  0  0  0  0  0  0
  -14.7827    5.6704    5.8501 H   0  0  0  0  0  0  0  0  0  0  0  0
  -12.9037    4.8939    4.4654 H   0  0  0  0  0  0  0  0  0  0  0  0
  -17.0004    0.9594    3.9054 H   0  0  0  0  0  0  0  0  0  0  0  0
  -17.8821    1.4174    2.4172 H   0  0  0  0  0  0  0  0  0  0  0  0
  -19.0642    1.0601    5.2144 H   0  0  0  0  0  0  0  0  0  0  0  0
  -19.1773   -0.1094    3.9029 H   0  0  0  0  0  0  0  0  0  0  0  0
  -20.4679    1.5542    2.5283 H   0  0  0  0  0  0  0  0  0  0  0  0
  -20.3518    2.7342    3.8506 H   0  0  0  0  0  0  0  0  0  0  0  0
  -22.8807    2.3628    3.2055 H   0  0  0  0  0  0  0  0  0  0  0  0
  -23.9681    0.0388    4.6599 H   0  0  0  0  0  0  0  0  0  0  0  0
  -24.8759    1.2038    3.6974 H   0  0  0  0  0  0  0  0  0  0  0  0
  -23.7279    1.6854    6.5136 H   0  0  0  0  0  0  0  0  0  0  0  0
  -25.4133    1.3646    6.1404 H   0  0  0  0  0  0  0  0  0  0  0  0
  -25.5254    3.4587    4.7672 H   0  0  0  0  0  0  0  0  0  0  0  0
  -23.8224    3.7899    5.1425 H   0  0  0  0  0  0  0  0  0  0  0  0
  1  2  1  0  0  0  0
  1 45  1  0  0  0  0
  1 46  1  0  0  0  0
  1 47  1  0  0  0  0
  2  3  1  0  0  0  0
  2  7  1  0  0  0  0
  3  4  1  0  0  0  0
  3 48  1  0  0  0  0
  3 49  1  0  0  0  0
  4  5  1  0  0  0  0
  4 50  1  0  0  0  0
  4 51  1  0  0  0  0
  5  6  1  0  0  0  0
  5  8  1  0  0  0  0
  6  7  1  0  0  0  0
  6 52  1  0  0  0  0
  6 53  1  0  0  0  0
  7 54  1  0  0  0  0
  7 55  1  0  0  0  0
  8  9  2  0  0  0  0
  8 13  1  0  0  0  0
  9 10  1  0  0  0  0
  9 56  1  0  0  0  0
 10 11  2  0  0  0  0
 10 16  1  0  0  0  0
 11 12  1  0  0  0  0
 11 14  1  0  0  0  0
 12 13  2  0  0  0  0
 12 57  1  0  0  0  0
 13 58  1  0  0  0  0
 14 15  2  0  0  0  0
 15 16  1  0  0  0  0
 15 17  1  0  0  0  0
 16 59  1  0  0  0  0
 17 18  2  0  0  0  0
 17 22  1  0  0  0  0
 18 19  1  0  0  0  0
 18 60  1  0  0  0  0
 19 20  2  0  0  0  0
 19 25  1  0  0  0  0
 20 21  1  0  0  0  0
 20 23  1  0  0  0  0
 21 22  2  0  0  0  0
 21 61  1  0  0  0  0
 22 62  1  0  0  0  0
 23 24  2  0  0  0  0
 24 25  1  0  0  0  0
 24 26  1  0  0  0  0
 25 63  1  0  0  0  0
 26 27  2  0  0  0  0
 26 31  1  0  0  0  0
 27 28  1  0  0  0  0
 27 64  1  0  0  0  0
 28 29  2  0  0  0  0
 28 32  1  0  0  0  0
 29 30  1  0  0  0  0
 29 65  1  0  0  0  0
 30 31  2  0  0  0  0
 30 66  1  0  0  0  0
 31 67  1  0  0  0  0
 32 33  1  0  0  0  0
 33 34  1  0  0  0  0
 33 68  1  0  0  0  0
 33 69  1  0  0  0  0
 34 35  1  0  0  0  0
 34 70  1  0  0  0  0
 34 71  1  0  0  0  0
 35 36  1  0  0  0  0
 35 72  1  0  0  0  0
 35 73  1  0  0  0  0
 36 37  2  0  0  0  0
 36 38  1  0  0  0  0
 38 39  1  0  0  0  0
 38 74  1  0  0  0  0
 39 40  1  0  0  0  0
 39 75  1  0  0  0  0
 39 76  1  0  0  0  0
 40 41  1  0  0  0  0
 40 77  1  0  0  0  0
 40 78  1  0  0  0  0
 41 42  1  0  0  0  0
 41 79  1  0  0  0  0
 41 80  1  0  0  0  0
 42 43  2  0  0  0  0
 43 44  2  0  0  0  0
M  CHG  2  43   1  44  -1
M  END
$$$$
Target_lig_778
 OpenBabel04172506213D

105110  0  0  0  0  0  0  0  0999 V2000
    9.3605   -7.5558    5.5666 N   0  0  0  0  0  0  0  0  0  0  0  0
    9.3709   -6.3135    5.5532 N   0  3  0  0  0  0  0  0  0  0  0  0
    9.3925   -5.0701    5.5573 N   0  0  0  0  0  0  0  0  0  0  0  0
   10.4604   -4.4590    4.7548 C   0  0  0  0  0  0  0  0  0  0  0  0
   10.3973   -2.9402    4.8923 C   0  0  0  0  0  0  0  0  0  0  0  0
   11.4826   -2.2966    4.0372 C   0  0  0  0  0  0  0  0  0  0  0  0
   11.4297   -0.8496    4.0734 N   0  0  0  0  0  0  0  0  0  0  0  0
   11.8816   -0.1204    2.9914 C   0  0  0  0  0  0  0  0  0  0  0  0
   12.2420   -0.6102    1.9246 O   0  0  0  0  0  0  0  0  0  0  0  0
   11.8585    1.3635    3.2857 C   0  0  0  0  0  0  0  0  0  0  0  0
   12.4126    2.1363    2.1130 C   0  0  0  0  0  0  0  0  0  0  0  0
   12.4752    3.6445    2.3064 C   0  0  0  0  0  0  0  0  0  0  0  0
   13.5332    4.0557    3.1357 O   0  0  0  0  0  0  0  0  0  0  0  0
   14.8641    3.8575    2.9271 C   0  0  0  0  0  0  0  0  0  0  0  0
   15.5892    3.6861    1.6995 C   0  0  0  0  0  0  0  0  0  0  0  0
   17.0430    3.7738    1.8306 C   0  0  0  0  0  0  0  0  0  0  0  0
   17.7671    3.9302    3.0229 C   0  0  0  0  0  0  0  0  0  0  0  0
   16.9843    4.0364    4.1833 C   0  0  0  0  0  0  0  0  0  0  0  0
   15.5599    3.9881    4.1947 C   0  0  0  0  0  0  0  0  0  0  0  0
   14.8358    4.1555    5.6030 C   0  0  0  0  0  0  0  0  0  0  0  0
   14.6006    5.6521    5.8941 C   0  0  0  0  0  0  0  0  0  0  0  0
   13.4797    3.4271    5.7745 C   0  0  0  0  0  0  0  0  0  0  0  0
   15.6737    3.5774    6.7842 C   0  0  0  0  0  0  0  0  0  0  0  0
   19.2798    3.9868    3.0598 C   0  0  0  0  0  0  0  0  0  0  0  0
   20.1828    3.8281    2.0793 N   0  0  0  0  0  0  0  0  0  0  0  0
   21.4630    3.9220    2.6750 C   0  0  0  0  0  0  0  0  0  0  0  0
   21.3229    4.1797    4.0289 C   0  0  0  0  0  0  0  0  0  0  0  0
   19.9669    4.2125    4.2433 N   0  0  0  0  0  0  0  0  0  0  0  0
   22.3984    4.3388    4.9088 C   0  0  0  0  0  0  0  0  0  0  0  0
   23.6928    4.1796    4.3914 C   0  0  0  0  0  0  0  0  0  0  0  0
   23.9281    3.8664    3.0445 C   0  0  0  0  0  0  0  0  0  0  0  0
   22.7981    3.7832    2.1702 C   0  0  0  0  0  0  0  0  0  0  0  0
   25.3391    3.5839    2.6417 C   0  0  0  0  0  0  0  0  0  0  0  0
   26.3894    3.4554    3.4506 N   0  0  0  0  0  0  0  0  0  0  0  0
   27.4813    3.1407    2.6594 C   0  0  0  0  0  0  0  0  0  0  0  0
   27.1014    3.1012    1.3292 C   0  0  0  0  0  0  0  0  0  0  0  0
   25.7551    3.3771    1.3444 N   0  0  0  0  0  0  0  0  0  0  0  0
   27.9818    2.8300    0.2794 C   0  0  0  0  0  0  0  0  0  0  0  0
   29.3549    2.6021    0.5580 C   0  0  0  0  0  0  0  0  0  0  0  0
   29.7388    2.5860    1.9072 C   0  0  0  0  0  0  0  0  0  0  0  0
   28.8306    2.8674    2.9609 C   0  0  0  0  0  0  0  0  0  0  0  0
   30.2590    2.4599   -0.4716 N   0  0  0  0  0  0  0  0  0  0  0  0
   31.4001    1.5221   -0.4731 C   0  0  0  0  0  0  0  0  0  0  0  0
   32.7059    2.2509   -0.8854 C   0  0  0  0  0  0  0  0  0  0  0  0
   32.5739    2.9478   -2.1869 N   0  0  0  0  0  0  0  0  0  0  0  0
   31.4546    3.9106   -2.0961 C   0  0  0  0  0  0  0  0  0  0  0  0
   30.1138    3.2379   -1.7134 C   0  0  0  0  0  0  0  0  0  0  0  0
   33.8149    3.6291   -2.5466 C   0  0  0  0  0  0  0  0  0  0  0  0
   15.0847    3.5492    0.1835 C   0  0  0  0  0  0  0  0  0  0  0  0
   14.9344    4.9811   -0.3752 C   0  0  0  0  0  0  0  0  0  0  0  0
   16.1568    2.7455   -0.6319 C   0  0  0  0  0  0  0  0  0  0  0  0
   13.8184    2.7910   -0.3158 C   0  0  0  0  0  0  0  0  0  0  0  0
    9.3345   -7.9638    4.6241 H   0  0  0  0  0  0  0  0  0  0  0  0
   10.3386   -4.7434    3.7026 H   0  0  0  0  0  0  0  0  0  0  0  0
   11.4377   -4.8222    5.0942 H   0  0  0  0  0  0  0  0  0  0  0  0
   10.5193   -2.6457    5.9418 H   0  0  0  0  0  0  0  0  0  0  0  0
    9.4106   -2.5753    4.5810 H   0  0  0  0  0  0  0  0  0  0  0  0
   11.3877   -2.6346    3.0000 H   0  0  0  0  0  0  0  0  0  0  0  0
   12.4780   -2.5883    4.3902 H   0  0  0  0  0  0  0  0  0  0  0  0
   11.3743   -0.3683    4.9700 H   0  0  0  0  0  0  0  0  0  0  0  0
   12.4748    1.5254    4.1648 H   0  0  0  0  0  0  0  0  0  0  0  0
   10.8310    1.6702    3.5042 H   0  0  0  0  0  0  0  0  0  0  0  0
   11.7871    1.9098    1.2413 H   0  0  0  0  0  0  0  0  0  0  0  0
   13.4177    1.7399    1.9460 H   0  0  0  0  0  0  0  0  0  0  0  0
   11.5429    3.9641    2.7893 H   0  0  0  0  0  0  0  0  0  0  0  0
   12.5049    4.2486    1.4024 H   0  0  0  0  0  0  0  0  0  0  0  0
   17.6705    3.7545    0.9433 H   0  0  0  0  0  0  0  0  0  0  0  0
   17.4866    4.1947    5.1288 H   0  0  0  0  0  0  0  0  0  0  0  0
   13.9124    6.1023    5.1708 H   0  0  0  0  0  0  0  0  0  0  0  0
   15.5365    6.2200    5.8711 H   0  0  0  0  0  0  0  0  0  0  0  0
   14.1603    5.7927    6.8910 H   0  0  0  0  0  0  0  0  0  0  0  0
   12.6703    3.8369    5.1677 H   0  0  0  0  0  0  0  0  0  0  0  0
   13.1074    3.5048    6.8050 H   0  0  0  0  0  0  0  0  0  0  0  0
   13.6027    2.3622    5.5682 H   0  0  0  0  0  0  0  0  0  0  0  0
   16.6159    4.1056    6.9482 H   0  0  0  0  0  0  0  0  0  0  0  0
   15.8878    2.5135    6.6287 H   0  0  0  0  0  0  0  0  0  0  0  0
   15.1260    3.6617    7.7332 H   0  0  0  0  0  0  0  0  0  0  0  0
   19.5429    4.3437    5.1462 H   0  0  0  0  0  0  0  0  0  0  0  0
   22.2535    4.5543    5.9625 H   0  0  0  0  0  0  0  0  0  0  0  0
   24.5424    4.2829    5.0713 H   0  0  0  0  0  0  0  0  0  0  0  0
   22.9232    3.5801    1.1128 H   0  0  0  0  0  0  0  0  0  0  0  0
   25.1678    3.4128    0.5289 H   0  0  0  0  0  0  0  0  0  0  0  0
   27.6289    2.7851   -0.7371 H   0  0  0  0  0  0  0  0  0  0  0  0
   30.7808    2.4111    2.1690 H   0  0  0  0  0  0  0  0  0  0  0  0
   29.1782    2.8844    3.9876 H   0  0  0  0  0  0  0  0  0  0  0  0
   31.1987    0.7269   -1.2067 H   0  0  0  0  0  0  0  0  0  0  0  0
   31.5441    1.0248    0.4905 H   0  0  0  0  0  0  0  0  0  0  0  0
   33.5135    1.5117   -0.9492 H   0  0  0  0  0  0  0  0  0  0  0  0
   32.9747    2.9668   -0.0971 H   0  0  0  0  0  0  0  0  0  0  0  0
   31.3204    4.4151   -3.0605 H   0  0  0  0  0  0  0  0  0  0  0  0
   31.6848    4.6858   -1.3519 H   0  0  0  0  0  0  0  0  0  0  0  0
   29.7768    2.5800   -2.5233 H   0  0  0  0  0  0  0  0  0  0  0  0
   29.3726    4.0383   -1.6046 H   0  0  0  0  0  0  0  0  0  0  0  0
   34.6320    2.9065   -2.6483 H   0  0  0  0  0  0  0  0  0  0  0  0
   34.1095    4.3827   -1.8077 H   0  0  0  0  0  0  0  0  0  0  0  0
   33.7124    4.1233   -3.5194 H   0  0  0  0  0  0  0  0  0  0  0  0
   15.8848    5.5218   -0.3804 H   0  0  0  0  0  0  0  0  0  0  0  0
   14.2198    5.5613    0.2219 H   0  0  0  0  0  0  0  0  0  0  0  0
   14.5548    4.9733   -1.4050 H   0  0  0  0  0  0  0  0  0  0  0  0
   17.0473    3.3305   -0.8668 H   0  0  0  0  0  0  0  0  0  0  0  0
   15.7887    2.4003   -1.6059 H   0  0  0  0  0  0  0  0  0  0  0  0
   16.4407    1.8392   -0.0790 H   0  0  0  0  0  0  0  0  0  0  0  0
   12.8667    3.2649   -0.1057 H   0  0  0  0  0  0  0  0  0  0  0  0
   13.8179    1.7376   -0.0230 H   0  0  0  0  0  0  0  0  0  0  0  0
   13.7842    2.7713   -1.4168 H   0  0  0  0  0  0  0  0  0  0  0  0
  1  2  2  0  0  0  0
  1 53  1  0  0  0  0
  2  3  2  0  0  0  0
  3  4  1  0  0  0  0
  4  5  1  0  0  0  0
  4 54  1  0  0  0  0
  4 55  1  0  0  0  0
  5  6  1  0  0  0  0
  5 56  1  0  0  0  0
  5 57  1  0  0  0  0
  6  7  1  0  0  0  0
  6 58  1  0  0  0  0
  6 59  1  0  0  0  0
  7  8  1  0  0  0  0
  7 60  1  0  0  0  0
  8  9  2  0  0  0  0
  8 10  1  0  0  0  0
 10 11  1  0  0  0  0
 10 61  1  0  0  0  0
 10 62  1  0  0  0  0
 11 12  1  0  0  0  0
 11 63  1  0  0  0  0
 11 64  1  0  0  0  0
 12 13  1  0  0  0  0
 12 65  1  0  0  0  0
 12 66  1  0  0  0  0
 13 14  1  0  0  0  0
 14 15  1  0  0  0  0
 14 19  2  0  0  0  0
 15 16  2  0  0  0  0
 15 49  1  0  0  0  0
 16 17  1  0  0  0  0
 16 67  1  0  0  0  0
 17 18  2  0  0  0  0
 17 24  1  0  0  0  0
 18 19  1  0  0  0  0
 18 68  1  0  0  0  0
 19 20  1  0  0  0  0
 20 21  1  0  0  0  0
 20 22  1  0  0  0  0
 20 23  1  0  0  0  0
 21 69  1  0  0  0  0
 21 70  1  0  0  0  0
 21 71  1  0  0  0  0
 22 72  1  0  0  0  0
 22 73  1  0  0  0  0
 22 74  1  0  0  0  0
 23 75  1  0  0  0  0
 23 76  1  0  0  0  0
 23 77  1  0  0  0  0
 24 25  2  0  0  0  0
 24 28  1  0  0  0  0
 25 26  1  0  0  0  0
 26 27  1  0  0  0  0
 26 32  2  0  0  0  0
 27 28  1  0  0  0  0
 27 29  2  0  0  0  0
 28 78  1  0  0  0  0
 29 30  1  0  0  0  0
 29 79  1  0  0  0  0
 30 31  2  0  0  0  0
 30 80  1  0  0  0  0
 31 32  1  0  0  0  0
 31 33  1  0  0  0  0
 32 81  1  0  0  0  0
 33 34  2  0  0  0  0
 33 37  1  0  0  0  0
 34 35  1  0  0  0  0
 35 36  1  0  0  0  0
 35 41  2  0  0  0  0
 36 37  1  0  0  0  0
 36 38  2  0  0  0  0
 37 82  1  0  0  0  0
 38 39  1  0  0  0  0
 38 83  1  0  0  0  0
 39 40  2  0  0  0  0
 39 42  1  0  0  0  0
 40 41  1  0  0  0  0
 40 84  1  0  0  0  0
 41 85  1  0  0  0  0
 42 43  1  0  0  0  0
 42 47  1  0  0  0  0
 43 44  1  0  0  0  0
 43 86  1  0  0  0  0
 43 87  1  0  0  0  0
 44 45  1  0  0  0  0
 44 88  1  0  0  0  0
 44 89  1  0  0  0  0
 45 46  1  0  0  0  0
 45 48  1  0  0  0  0
 46 47  1  0  0  0  0
 46 90  1  0  0  0  0
 46 91  1  0  0  0  0
 47 92  1  0  0  0  0
 47 93  1  0  0  0  0
 48 94  1  0  0  0  0
 48 95  1  0  0  0  0
 48 96  1  0  0  0  0
 49 50  1  0  0  0  0
 49 51  1  0  0  0  0
 49 52  1  0  0  0  0
 50 97  1  0  0  0  0
 50 98  1  0  0  0  0
 50 99  1  0  0  0  0
 51100  1  0  0  0  0
 51101  1  0  0  0  0
 51102  1  0  0  0  0
 52103  1  0  0  0  0
 52104  1  0  0  0  0
 52105  1  0  0  0  0
M  CHG  1   2   1
M  END
$$$$
Target_lig_780
 OpenBabel04172506213D

103103  0  0  0  0  0  0  0  0999 V2000
    2.7894    0.5885   -2.3845 C   0  0  0  0  0  0  0  0  0  0  0  0
    3.8860   -0.2682   -2.9907 C   0  0  0  0  0  0  0  0  0  0  0  0
    4.8816   -0.8693   -2.0078 C   0  0  0  0  0  0  0  0  0  0  0  0
    4.3980   -1.8440   -1.0462 N   0  0  0  0  0  0  0  0  0  0  0  0
    3.5735   -2.9159   -1.4385 C   0  0  0  0  0  0  0  0  0  0  0  0
    3.3115   -3.1343   -2.6370 O   0  0  0  0  0  0  0  0  0  0  0  0
    2.8599   -3.7553   -0.3389 C   0  0  0  0  0  0  0  0  0  0  0  0
    3.2606   -5.1167    0.0964 N   0  0  0  0  0  0  0  0  0  0  0  0
    4.1582   -5.8598   -0.6713 C   0  0  0  0  0  0  0  0  0  0  0  0
    4.7854   -5.3764   -1.6150 O   0  0  0  0  0  0  0  0  0  0  0  0
    4.4649   -7.3140   -0.2693 C   0  0  0  0  0  0  0  0  0  0  0  0
    3.5460   -8.2733   -0.9108 N   0  0  0  0  0  0  0  0  0  0  0  0
    3.8663   -9.6142   -0.4011 C   0  0  0  0  0  0  0  0  0  0  0  0
    3.0097  -10.6687   -1.0030 C   0  0  0  0  0  0  0  0  0  0  0  0
    3.5274  -11.9178   -1.2389 N   0  0  0  0  0  0  0  0  0  0  0  0
    2.5534  -12.6934   -1.6910 N   0  0  0  0  0  0  0  0  0  0  0  0
    1.4206  -11.9542   -1.7511 N   0  0  0  0  0  0  0  0  0  0  0  0
    1.6719  -10.6776   -1.3286 C   0  0  0  0  0  0  0  0  0  0  0  0
    0.2317  -12.4247   -2.1689 N   0  0  0  0  0  0  0  0  0  0  0  0
    0.3038  -13.6116   -2.5120 N   0  3  0  0  0  0  0  0  0  0  0  0
    0.3775  -14.7959   -2.8689 N   0  0  0  0  0  0  0  0  0  0  0  0
    2.4789   -5.6849    1.2187 C   0  0  0  0  0  0  0  0  0  0  0  0
    2.7960   -5.0567    2.5798 C   0  0  0  0  0  0  0  0  0  0  0  0
    4.2119   -5.3666    2.9757 C   0  0  0  0  0  0  0  0  0  0  0  0
    5.2784   -2.0433    0.0991 C   0  0  0  0  0  0  0  0  0  0  0  0
    6.8267   -2.2322   -0.1432 C   0  0  0  0  0  0  0  0  0  0  0  0
    7.4269   -1.5661   -1.0066 O   0  0  0  0  0  0  0  0  0  0  0  0
    7.5205   -3.1293    0.6920 N   0  0  0  0  0  0  0  0  0  0  0  0
    6.7960   -3.8983    1.6587 C   0  0  0  0  0  0  0  0  0  0  0  0
    6.0924   -3.1507    2.8425 C   0  0  0  0  0  0  0  0  0  0  0  0
    5.0738   -2.4762    2.6517 O   0  0  0  0  0  0  0  0  0  0  0  0
    6.5582   -3.2900    4.1435 N   0  0  0  0  0  0  0  0  0  0  0  0
    7.9489   -3.6730    4.3934 C   0  0  0  0  0  0  0  0  0  0  0  0
    8.5018   -5.0850    4.0441 C   0  0  0  0  0  0  0  0  0  0  0  0
    7.7672   -6.0760    4.0514 O   0  0  0  0  0  0  0  0  0  0  0  0
    9.8755   -5.1879    3.7738 N   0  0  0  0  0  0  0  0  0  0  0  0
   10.7413   -4.0304    3.4887 C   0  0  0  0  0  0  0  0  0  0  0  0
   11.1540   -3.1392    4.6704 C   0  0  0  0  0  0  0  0  0  0  0  0
   10.4740   -2.9824    5.6794 O   0  0  0  0  0  0  0  0  0  0  0  0
   12.2962   -2.4074    4.5013 N   0  0  0  0  0  0  0  0  0  0  0  0
   10.5062   -6.5125    3.8178 C   0  0  0  0  0  0  0  0  0  0  0  0
   10.3538   -7.4083    2.5780 C   0  0  0  0  0  0  0  0  0  0  0  0
   11.0951   -6.9112    1.3474 C   0  0  0  0  0  0  0  0  0  0  0  0
    5.9524   -2.3427    5.1068 C   0  0  0  0  0  0  0  0  0  0  0  0
    4.7265   -2.8382    5.8860 C   0  0  0  0  0  0  0  0  0  0  0  0
    5.0661   -3.9509    6.8599 C   0  0  0  0  0  0  0  0  0  0  0  0
    8.5265   -3.9550   -0.0383 C   0  0  0  0  0  0  0  0  0  0  0  0
    9.7289   -3.2846   -0.6962 C   0  0  0  0  0  0  0  0  0  0  0  0
   10.6204   -2.5380    0.2728 C   0  0  0  0  0  0  0  0  0  0  0  0
    2.1324    0.9400   -3.1890 H   0  0  0  0  0  0  0  0  0  0  0  0
    3.1988    1.4710   -1.8836 H   0  0  0  0  0  0  0  0  0  0  0  0
    2.1763    0.0291   -1.6728 H   0  0  0  0  0  0  0  0  0  0  0  0
    4.4588    0.3567   -3.6848 H   0  0  0  0  0  0  0  0  0  0  0  0
    3.4268   -1.0479   -3.6001 H   0  0  0  0  0  0  0  0  0  0  0  0
    5.3470   -0.0479   -1.4419 H   0  0  0  0  0  0  0  0  0  0  0  0
    5.6552   -1.3778   -2.5925 H   0  0  0  0  0  0  0  0  0  0  0  0
    1.8194   -3.8499   -0.6818 H   0  0  0  0  0  0  0  0  0  0  0  0
    2.7979   -3.1327    0.5606 H   0  0  0  0  0  0  0  0  0  0  0  0
    4.4612   -7.4174    0.8178 H   0  0  0  0  0  0  0  0  0  0  0  0
    5.4984   -7.5215   -0.5811 H   0  0  0  0  0  0  0  0  0  0  0  0
    3.7204   -8.2491   -1.9199 H   0  0  0  0  0  0  0  0  0  0  0  0
    3.7029   -9.6376    0.6826 H   0  0  0  0  0  0  0  0  0  0  0  0
    4.9193   -9.8541   -0.5934 H   0  0  0  0  0  0  0  0  0  0  0  0
    0.9009   -9.9254   -1.2864 H   0  0  0  0  0  0  0  0  0  0  0  0
    1.3546  -15.0326   -3.0750 H   0  0  0  0  0  0  0  0  0  0  0  0
    2.6358   -6.7610    1.3099 H   0  0  0  0  0  0  0  0  0  0  0  0
    1.4202   -5.5463    0.9896 H   0  0  0  0  0  0  0  0  0  0  0  0
    2.1343   -5.4402    3.3594 H   0  0  0  0  0  0  0  0  0  0  0  0
    2.6594   -3.9689    2.5458 H   0  0  0  0  0  0  0  0  0  0  0  0
    4.4762   -6.4184    3.0679 H   0  0  0  0  0  0  0  0  0  0  0  0
    4.4849   -4.8542    3.8948 H   0  0  0  0  0  0  0  0  0  0  0  0
    4.8026   -5.0031    2.1617 H   0  0  0  0  0  0  0  0  0  0  0  0
    4.9155   -2.9512    0.5617 H   0  0  0  0  0  0  0  0  0  0  0  0
    5.1494   -1.1941    0.7712 H   0  0  0  0  0  0  0  0  0  0  0  0
    7.4314   -4.6763    2.0612 H   0  0  0  0  0  0  0  0  0  0  0  0
    6.0899   -4.4657    1.0532 H   0  0  0  0  0  0  0  0  0  0  0  0
    8.0833   -3.6265    5.4779 H   0  0  0  0  0  0  0  0  0  0  0  0
    8.5286   -2.8926    3.9061 H   0  0  0  0  0  0  0  0  0  0  0  0
   10.1921   -3.3769    2.8096 H   0  0  0  0  0  0  0  0  0  0  0  0
   11.6427   -4.3762    2.9703 H   0  0  0  0  0  0  0  0  0  0  0  0
   12.7321   -2.2557    3.6011 H   0  0  0  0  0  0  0  0  0  0  0  0
   12.5066   -1.7337    5.2298 H   0  0  0  0  0  0  0  0  0  0  0  0
   10.0601   -7.0476    4.6640 H   0  0  0  0  0  0  0  0  0  0  0  0
   11.5684   -6.3839    4.0531 H   0  0  0  0  0  0  0  0  0  0  0  0
    9.3000   -7.5733    2.3306 H   0  0  0  0  0  0  0  0  0  0  0  0
   10.7698   -8.3942    2.8311 H   0  0  0  0  0  0  0  0  0  0  0  0
   10.6736   -5.9746    0.9822 H   0  0  0  0  0  0  0  0  0  0  0  0
   11.0237   -7.6482    0.5386 H   0  0  0  0  0  0  0  0  0  0  0  0
   12.1563   -6.7532    1.5608 H   0  0  0  0  0  0  0  0  0  0  0  0
    5.6436   -1.4378    4.5664 H   0  0  0  0  0  0  0  0  0  0  0  0
    6.7222   -2.0050    5.8062 H   0  0  0  0  0  0  0  0  0  0  0  0
    3.9115   -3.1509    5.2237 H   0  0  0  0  0  0  0  0  0  0  0  0
    4.3328   -1.9906    6.4642 H   0  0  0  0  0  0  0  0  0  0  0  0
    5.3616   -4.8604    6.3298 H   0  0  0  0  0  0  0  0  0  0  0  0
    4.2027   -4.1864    7.4901 H   0  0  0  0  0  0  0  0  0  0  0  0
    5.8883   -3.6469    7.5162 H   0  0  0  0  0  0  0  0  0  0  0  0
    7.9747   -4.5210   -0.8007 H   0  0  0  0  0  0  0  0  0  0  0  0
    8.9181   -4.6886    0.6722 H   0  0  0  0  0  0  0  0  0  0  0  0
    9.4283   -2.6226   -1.5088 H   0  0  0  0  0  0  0  0  0  0  0  0
   10.3287   -4.0791   -1.1590 H   0  0  0  0  0  0  0  0  0  0  0  0
   10.0743   -1.7577    0.8107 H   0  0  0  0  0  0  0  0  0  0  0  0
   11.4582   -2.0772   -0.2562 H   0  0  0  0  0  0  0  0  0  0  0  0
   11.0580   -3.2354    0.9857 H   0  0  0  0  0  0  0  0  0  0  0  0
  1  2  1  0  0  0  0
  1 50  1  0  0  0  0
  1 51  1  0  0  0  0
  1 52  1  0  0  0  0
  2  3  1  0  0  0  0
  2 53  1  0  0  0  0
  2 54  1  0  0  0  0
  3  4  1  0  0  0  0
  3 55  1  0  0  0  0
  3 56  1  0  0  0  0
  4  5  1  0  0  0  0
  4 25  1  0  0  0  0
  5  6  2  0  0  0  0
  5  7  1  0  0  0  0
  7  8  1  0  0  0  0
  7 57  1  0  0  0  0
  7 58  1  0  0  0  0
  8  9  1  0  0  0  0
  8 22  1  0  0  0  0
  9 10  2  0  0  0  0
  9 11  1  0  0  0  0
 11 12  1  0  0  0  0
 11 59  1  0  0  0  0
 11 60  1  0  0  0  0
 12 13  1  0  0  0  0
 12 61  1  0  0  0  0
 13 14  1  0  0  0  0
 13 62  1  0  0  0  0
 13 63  1  0  0  0  0
 14 15  1  0  0  0  0
 14 18  2  0  0  0  0
 15 16  2  0  0  0  0
 16 17  1  0  0  0  0
 17 18  1  0  0  0  0
 17 19  1  0  0  0  0
 18 64  1  0  0  0  0
 19 20  2  0  0  0  0
 20 21  2  0  0  0  0
 21 65  1  0  0  0  0
 22 23  1  0  0  0  0
 22 66  1  0  0  0  0
 22 67  1  0  0  0  0
 23 24  1  0  0  0  0
 23 68  1  0  0  0  0
 23 69  1  0  0  0  0
 24 70  1  0  0  0  0
 24 71  1  0  0  0  0
 24 72  1  0  0  0  0
 25 26  1  0  0  0  0
 25 73  1  0  0  0  0
 25 74  1  0  0  0  0
 26 27  2  0  0  0  0
 26 28  1  0  0  0  0
 28 29  1  0  0  0  0
 28 47  1  0  0  0  0
 29 30  1  0  0  0  0
 29 75  1  0  0  0  0
 29 76  1  0  0  0  0
 30 31  2  0  0  0  0
 30 32  1  0  0  0  0
 32 33  1  0  0  0  0
 32 44  1  0  0  0  0
 33 34  1  0  0  0  0
 33 77  1  0  0  0  0
 33 78  1  0  0  0  0
 34 35  2  0  0  0  0
 34 36  1  0  0  0  0
 36 37  1  0  0  0  0
 36 41  1  0  0  0  0
 37 38  1  0  0  0  0
 37 79  1  0  0  0  0
 37 80  1  0  0  0  0
 38 39  2  0  0  0  0
 38 40  1  0  0  0  0
 40 81  1  0  0  0  0
 40 82  1  0  0  0  0
 41 42  1  0  0  0  0
 41 83  1  0  0  0  0
 41 84  1  0  0  0  0
 42 43  1  0  0  0  0
 42 85  1  0  0  0  0
 42 86  1  0  0  0  0
 43 87  1  0  0  0  0
 43 88  1  0  0  0  0
 43 89  1  0  0  0  0
 44 45  1  0  0  0  0
 44 90  1  0  0  0  0
 44 91  1  0  0  0  0
 45 46  1  0  0  0  0
 45 92  1  0  0  0  0
 45 93  1  0  0  0  0
 46 94  1  0  0  0  0
 46 95  1  0  0  0  0
 46 96  1  0  0  0  0
 47 48  1  0  0  0  0
 47 97  1  0  0  0  0
 47 98  1  0  0  0  0
 48 49  1  0  0  0  0
 48 99  1  0  0  0  0
 48100  1  0  0  0  0
 49101  1  0  0  0  0
 49102  1  0  0  0  0
 49103  1  0  0  0  0
M  CHG  1  20   1
M  END
$$$$
Target_lig_781
 OpenBabel04172506213D

113114  0  0  0  0  0  0  0  0999 V2000
    8.6413    0.0021   -3.3781 C   0  0  0  0  0  0  0  0  0  0  0  0
    7.4811    0.7789   -2.7684 C   0  0  0  0  0  0  0  0  0  0  0  0
    6.6853   -0.0158   -1.7235 C   0  0  0  0  0  0  0  0  0  0  0  0
    7.4212   -0.3612   -0.5033 N   0  0  0  0  0  0  0  0  0  0  0  0
    7.2712   -1.5847    0.1717 C   0  0  0  0  0  0  0  0  0  0  0  0
    8.0425   -1.9038    1.0810 O   0  0  0  0  0  0  0  0  0  0  0  0
    6.0918   -2.4612   -0.2460 C   0  0  0  0  0  0  0  0  0  0  0  0
    5.8276   -3.5382    0.7273 N   0  0  0  0  0  0  0  0  0  0  0  0
    5.4190   -3.0515    2.0463 C   0  0  0  0  0  0  0  0  0  0  0  0
    4.2137   -2.1914    1.9956 C   0  0  0  0  0  0  0  0  0  0  0  0
    3.0393   -2.5322    1.3958 N   0  0  0  0  0  0  0  0  0  0  0  0
    2.1493   -1.5858    1.6731 N   0  0  0  0  0  0  0  0  0  0  0  0
    2.7341   -0.7061    2.5130 N   0  0  0  0  0  0  0  0  0  0  0  0
    4.0646   -0.9617    2.5988 C   0  0  0  0  0  0  0  0  0  0  0  0
    1.9768    0.1456    3.2117 N   0  0  0  0  0  0  0  0  0  0  0  0
    2.6068    0.7530    4.0869 N   0  3  0  0  0  0  0  0  0  0  0  0
    3.0344    1.5215    4.9555 N   0  0  0  0  0  0  0  0  0  0  0  0
    4.1128    1.1774    5.6603 N   0  0  0  0  0  0  0  0  0  0  0  0
    4.8914    0.0854    5.5301 N   0  0  0  0  0  0  0  0  0  0  0  0
    5.8919    0.1707    6.4146 N   0  0  0  0  0  0  0  0  0  0  0  0
    5.7277    1.3270    7.1254 C   0  0  0  0  0  0  0  0  0  0  0  0
    4.6156    1.9560    6.6550 C   0  0  0  0  0  0  0  0  0  0  0  0
    6.5627    1.7860    8.2524 C   0  0  0  0  0  0  0  0  0  0  0  0
    6.1730    3.1023    8.6703 O   0  0  0  0  0  0  0  0  0  0  0  0
    8.0456    0.7112    0.2739 C   0  0  0  0  0  0  0  0  0  0  0  0
    7.0470    1.5967    1.0866 C   0  0  0  0  0  0  0  0  0  0  0  0
    5.8307    1.4752    0.9459 O   0  0  0  0  0  0  0  0  0  0  0  0
    7.5948    2.5372    1.9669 N   0  0  0  0  0  0  0  0  0  0  0  0
    6.7474    3.2280    2.9686 C   0  0  0  0  0  0  0  0  0  0  0  0
    5.3375    3.9349    2.8036 C   0  0  0  0  0  0  0  0  0  0  0  0
    4.6164    3.7743    1.8304 O   0  0  0  0  0  0  0  0  0  0  0  0
    4.8993    4.7435    3.9071 N   0  0  0  0  0  0  0  0  0  0  0  0
    5.8775    5.1587    4.9315 C   0  0  0  0  0  0  0  0  0  0  0  0
    5.6418    5.7623    6.3526 C   0  0  0  0  0  0  0  0  0  0  0  0
    4.6322    6.3970    6.6449 O   0  0  0  0  0  0  0  0  0  0  0  0
    6.6744    5.5253    7.3041 N   0  0  0  0  0  0  0  0  0  0  0  0
    6.4365    6.0297    8.7094 C   0  0  0  0  0  0  0  0  0  0  0  0
    7.3203    5.4907    9.8788 C   0  0  0  0  0  0  0  0  0  0  0  0
    8.5200    5.2491    9.6845 O   0  0  0  0  0  0  0  0  0  0  0  0
    6.8031    5.3347   11.1705 N   0  0  0  0  0  0  0  0  0  0  0  0
    5.4252    5.6823   11.5945 C   0  0  0  0  0  0  0  0  0  0  0  0
    4.2358    4.7953   11.1411 C   0  0  0  0  0  0  0  0  0  0  0  0
    3.0780    5.2011   11.2478 O   0  0  0  0  0  0  0  0  0  0  0  0
    4.5250    3.5481   10.7488 N   0  0  0  0  0  0  0  0  0  0  0  0
    7.8026    5.1732   12.2447 C   0  0  0  0  0  0  0  0  0  0  0  0
    8.7593    6.3753   12.4101 C   0  0  0  0  0  0  0  0  0  0  0  0
    8.0594    7.6767   12.7623 C   0  0  0  0  0  0  0  0  0  0  0  0
    8.0430    5.1411    6.8818 C   0  0  0  0  0  0  0  0  0  0  0  0
    8.8590    6.2680    6.2577 C   0  0  0  0  0  0  0  0  0  0  0  0
   10.2226    5.7494    5.8165 C   0  0  0  0  0  0  0  0  0  0  0  0
    3.5995    5.4501    3.7917 C   0  0  0  0  0  0  0  0  0  0  0  0
    2.3734    4.5946    4.1685 C   0  0  0  0  0  0  0  0  0  0  0  0
    2.4011    4.2694    5.6429 C   0  0  0  0  0  0  0  0  0  0  0  0
    9.0455    2.5460    2.2518 C   0  0  0  0  0  0  0  0  0  0  0  0
    9.8262    3.3660    1.2310 C   0  0  0  0  0  0  0  0  0  0  0  0
    9.4490    4.8362    1.2883 C   0  0  0  0  0  0  0  0  0  0  0  0
    9.1116    0.5971   -4.1688 H   0  0  0  0  0  0  0  0  0  0  0  0
    8.2985   -0.9353   -3.8281 H   0  0  0  0  0  0  0  0  0  0  0  0
    9.4091   -0.2306   -2.6341 H   0  0  0  0  0  0  0  0  0  0  0  0
    6.7957    1.0532   -3.5797 H   0  0  0  0  0  0  0  0  0  0  0  0
    7.8535    1.7194   -2.3514 H   0  0  0  0  0  0  0  0  0  0  0  0
    6.3285   -0.9301   -2.2073 H   0  0  0  0  0  0  0  0  0  0  0  0
    5.7986    0.5526   -1.4291 H   0  0  0  0  0  0  0  0  0  0  0  0
    6.3370   -2.9310   -1.2013 H   0  0  0  0  0  0  0  0  0  0  0  0
    5.1976   -1.8455   -0.3929 H   0  0  0  0  0  0  0  0  0  0  0  0
    6.7040   -4.0438    0.8644 H   0  0  0  0  0  0  0  0  0  0  0  0
    6.2324   -2.5115    2.5441 H   0  0  0  0  0  0  0  0  0  0  0  0
    5.1998   -3.9098    2.6913 H   0  0  0  0  0  0  0  0  0  0  0  0
    4.7612   -0.3464    3.1378 H   0  0  0  0  0  0  0  0  0  0  0  0
    4.1522    2.8518    7.0127 H   0  0  0  0  0  0  0  0  0  0  0  0
    7.6246    1.8305    8.0026 H   0  0  0  0  0  0  0  0  0  0  0  0
    6.4050    1.1492    9.1225 H   0  0  0  0  0  0  0  0  0  0  0  0
    6.2778    3.6807    7.8875 H   0  0  0  0  0  0  0  0  0  0  0  0
    8.6440    1.3194   -0.4028 H   0  0  0  0  0  0  0  0  0  0  0  0
    8.7255    0.2423    0.9858 H   0  0  0  0  0  0  0  0  0  0  0  0
    7.3924    4.0641    3.2675 H   0  0  0  0  0  0  0  0  0  0  0  0
    6.6688    2.5359    3.8173 H   0  0  0  0  0  0  0  0  0  0  0  0
    6.5581    5.8469    4.4150 H   0  0  0  0  0  0  0  0  0  0  0  0
    6.3905    4.2282    5.1443 H   0  0  0  0  0  0  0  0  0  0  0  0
    5.3844    5.8372    8.9361 H   0  0  0  0  0  0  0  0  0  0  0  0
    6.5701    7.1172    8.6869 H   0  0  0  0  0  0  0  0  0  0  0  0
    5.2392    6.7283   11.2929 H   0  0  0  0  0  0  0  0  0  0  0  0
    5.3936    5.6238   12.6871 H   0  0  0  0  0  0  0  0  0  0  0  0
    5.3837    3.3377   10.2617 H   0  0  0  0  0  0  0  0  0  0  0  0
    3.6898    3.0416   10.3952 H   0  0  0  0  0  0  0  0  0  0  0  0
    8.4076    4.2868   12.0076 H   0  0  0  0  0  0  0  0  0  0  0  0
    7.3074    4.9610   13.1977 H   0  0  0  0  0  0  0  0  0  0  0  0
    9.3470    6.5397   11.4986 H   0  0  0  0  0  0  0  0  0  0  0  0
    9.4883    6.1414   13.1939 H   0  0  0  0  0  0  0  0  0  0  0  0
    7.3559    7.9801   11.9815 H   0  0  0  0  0  0  0  0  0  0  0  0
    8.7964    8.4797   12.8692 H   0  0  0  0  0  0  0  0  0  0  0  0
    7.5176    7.5850   13.7081 H   0  0  0  0  0  0  0  0  0  0  0  0
    7.9725    4.3250    6.1594 H   0  0  0  0  0  0  0  0  0  0  0  0
    8.5873    4.6667    7.6915 H   0  0  0  0  0  0  0  0  0  0  0  0
    8.9842    7.0907    6.9689 H   0  0  0  0  0  0  0  0  0  0  0  0
    8.3439    6.6780    5.3837 H   0  0  0  0  0  0  0  0  0  0  0  0
   10.8000    5.3892    6.6742 H   0  0  0  0  0  0  0  0  0  0  0  0
   10.7952    6.5420    5.3264 H   0  0  0  0  0  0  0  0  0  0  0  0
   10.1178    4.9208    5.1066 H   0  0  0  0  0  0  0  0  0  0  0  0
    3.4712    5.7749    2.7551 H   0  0  0  0  0  0  0  0  0  0  0  0
    3.6149    6.3521    4.4106 H   0  0  0  0  0  0  0  0  0  0  0  0
    2.3667    3.6719    3.5773 H   0  0  0  0  0  0  0  0  0  0  0  0
    1.4357    5.1176    3.9520 H   0  0  0  0  0  0  0  0  0  0  0  0
    3.4143    3.9683    5.8395 H   0  0  0  0  0  0  0  0  0  0  0  0
    1.7168    3.4623    5.9222 H   0  0  0  0  0  0  0  0  0  0  0  0
    2.2141    5.1277    6.2903 H   0  0  0  0  0  0  0  0  0  0  0  0
    9.4336    1.5130    2.2795 H   0  0  0  0  0  0  0  0  0  0  0  0
    9.2227    2.9313    3.2634 H   0  0  0  0  0  0  0  0  0  0  0  0
    9.6502    3.0091    0.2122 H   0  0  0  0  0  0  0  0  0  0  0  0
   10.9002    3.2561    1.4184 H   0  0  0  0  0  0  0  0  0  0  0  0
    8.3840    4.9784    1.0768 H   0  0  0  0  0  0  0  0  0  0  0  0
   10.0143    5.4013    0.5418 H   0  0  0  0  0  0  0  0  0  0  0  0
    9.6639    5.2510    2.2771 H   0  0  0  0  0  0  0  0  0  0  0  0
  1  2  1  0  0  0  0
  1 57  1  0  0  0  0
  1 58  1  0  0  0  0
  1 59  1  0  0  0  0
  2  3  1  0  0  0  0
  2 60  1  0  0  0  0
  2 61  1  0  0  0  0
  3  4  1  0  0  0  0
  3 62  1  0  0  0  0
  3 63  1  0  0  0  0
  4  5  1  0  0  0  0
  4 25  1  0  0  0  0
  5  6  2  0  0  0  0
  5  7  1  0  0  0  0
  7  8  1  0  0  0  0
  7 64  1  0  0  0  0
  7 65  1  0  0  0  0
  8  9  1  0  0  0  0
  8 66  1  0  0  0  0
  9 10  1  0  0  0  0
  9 67  1  0  0  0  0
  9 68  1  0  0  0  0
 10 11  1  0  0  0  0
 10 14  2  0  0  0  0
 11 12  2  0  0  0  0
 12 13  1  0  0  0  0
 13 14  1  0  0  0  0
 13 15  1  0  0  0  0
 14 69  1  0  0  0  0
 15 16  2  0  0  0  0
 16 17  2  0  0  0  0
 17 18  1  0  0  0  0
 18 19  1  0  0  0  0
 18 22  1  0  0  0  0
 19 20  2  0  0  0  0
 20 21  1  0  0  0  0
 21 22  2  0  0  0  0
 21 23  1  0  0  0  0
 22 70  1  0  0  0  0
 23 24  1  0  0  0  0
 23 71  1  0  0  0  0
 23 72  1  0  0  0  0
 24 73  1  0  0  0  0
 25 26  1  0  0  0  0
 25 74  1  0  0  0  0
 25 75  1  0  0  0  0
 26 27  2  0  0  0  0
 26 28  1  0  0  0  0
 28 29  1  0  0  0  0
 28 54  1  0  0  0  0
 29 30  1  0  0  0  0
 29 76  1  0  0  0  0
 29 77  1  0  0  0  0
 30 31  2  0  0  0  0
 30 32  1  0  0  0  0
 32 33  1  0  0  0  0
 32 51  1  0  0  0  0
 33 34  1  0  0  0  0
 33 78  1  0  0  0  0
 33 79  1  0  0  0  0
 34 35  2  0  0  0  0
 34 36  1  0  0  0  0
 36 37  1  0  0  0  0
 36 48  1  0  0  0  0
 37 38  1  0  0  0  0
 37 80  1  0  0  0  0
 37 81  1  0  0  0  0
 38 39  2  0  0  0  0
 38 40  1  0  0  0  0
 40 41  1  0  0  0  0
 40 45  1  0  0  0  0
 41 42  1  0  0  0  0
 41 82  1  0  0  0  0
 41 83  1  0  0  0  0
 42 43  2  0  0  0  0
 42 44  1  0  0  0  0
 44 84  1  0  0  0  0
 44 85  1  0  0  0  0
 45 46  1  0  0  0  0
 45 86  1  0  0  0  0
 45 87  1  0  0  0  0
 46 47  1  0  0  0  0
 46 88  1  0  0  0  0
 46 89  1  0  0  0  0
 47 90  1  0  0  0  0
 47 91  1  0  0  0  0
 47 92  1  0  0  0  0
 48 49  1  0  0  0  0
 48 93  1  0  0  0  0
 48 94  1  0  0  0  0
 49 50  1  0  0  0  0
 49 95  1  0  0  0  0
 49 96  1  0  0  0  0
 50 97  1  0  0  0  0
 50 98  1  0  0  0  0
 50 99  1  0  0  0  0
 51 52  1  0  0  0  0
 51100  1  0  0  0  0
 51101  1  0  0  0  0
 52 53  1  0  0  0  0
 52102  1  0  0  0  0
 52103  1  0  0  0  0
 53104  1  0  0  0  0
 53105  1  0  0  0  0
 53106  1  0  0  0  0
 54 55  1  0  0  0  0
 54107  1  0  0  0  0
 54108  1  0  0  0  0
 55 56  1  0  0  0  0
 55109  1  0  0  0  0
 55110  1  0  0  0  0
 56111  1  0  0  0  0
 56112  1  0  0  0  0
 56113  1  0  0  0  0
M  CHG  1  16   1
M  END
$$$$
Target_lig_1269
 OpenBabel04172506213D

 68 70  0  0  1  0  0  0  0  0999 V2000
    7.0410   -2.8409    0.7706 C   0  0  0  0  0  0  0  0  0  0  0  0
    6.4273   -3.1688   -0.6009 C   0  0  3  0  0  0  0  0  0  0  0  0
    6.9016   -2.1564   -1.6578 C   0  0  0  0  0  0  0  0  0  0  0  0
    6.4604   -0.8305   -1.3803 O   0  0  0  0  0  0  0  0  0  0  0  0
    5.0427   -0.6960   -1.4282 C   0  0  3  0  0  0  0  0  0  0  0  0
    4.3432   -1.6925   -0.4611 C   0  0  3  0  0  0  0  0  0  0  0  0
    4.8673   -3.1500   -0.5866 C   0  0  3  0  0  0  0  0  0  0  0  0
    4.2247   -3.9629    0.4875 N   0  0  0  0  0  0  0  0  0  0  0  0
    4.5466   -5.3829    0.4246 C   0  0  0  0  0  0  0  0  0  0  0  0
    2.9155   -1.6511   -0.6362 O   0  0  0  0  0  0  0  0  0  0  0  0
    4.5151   -0.7817   -2.7727 O   0  0  0  0  0  0  0  0  0  0  0  0
    5.1718    0.1213   -3.7147 C   0  0  3  0  0  0  0  0  0  0  0  0
    4.9027    1.6261   -3.4300 C   0  0  3  0  0  0  0  0  0  0  0  0
    3.4682    2.0354   -3.7950 C   0  0  0  0  0  0  0  0  0  0  0  0
    2.9736    1.5983   -5.1794 C   0  0  3  0  0  0  0  0  0  0  0  0
    3.2422    0.0853   -5.4125 C   0  0  3  0  0  0  0  0  0  0  0  0
    4.7326   -0.2554   -5.1529 C   0  0  3  0  0  0  0  0  0  0  0  0
    4.9926   -1.6540   -5.3562 O   0  0  0  0  0  0  0  0  0  0  0  0
    2.8828   -0.3491   -6.7390 O   0  0  0  0  0  0  0  0  0  0  0  0
    1.4954   -0.2068   -7.1195 C   0  0  3  0  0  0  0  0  0  0  0  0
    0.5686   -1.0870   -6.2106 C   0  0  3  0  0  0  0  0  0  0  0  0
   -0.3579   -2.0591   -6.9402 C   0  0  0  0  0  0  0  0  0  0  0  0
   -0.4563   -1.8489   -8.4033 C   0  0  0  0  0  0  0  0  0  0  0  0
    0.3527   -1.0522   -9.1052 C   0  0  0  0  0  0  0  0  0  0  0  0
    1.4059   -0.3774   -8.5420 O   0  0  0  0  0  0  0  0  0  0  0  0
    0.2409   -0.8422  -10.6032 C   0  0  0  0  0  0  0  0  0  0  0  0
   -0.6911   -1.7432  -11.2850 N   0  0  0  0  0  0  0  0  0  0  0  0
   -0.2537   -0.2763   -5.2649 N   0  0  0  0  0  0  0  0  0  0  0  0
    3.4541    2.4579   -6.2655 N   0  0  0  0  0  0  0  0  0  0  0  0
    5.8759    2.5138   -4.0806 N   0  0  0  0  0  0  0  0  0  0  0  0
    6.8928   -4.4644   -1.0188 O   0  0  0  0  0  0  0  0  0  0  0  0
    6.7755   -1.8386    1.1187 H   0  0  0  0  0  0  0  0  0  0  0  0
    8.1349   -2.9041    0.7291 H   0  0  0  0  0  0  0  0  0  0  0  0
    6.7302   -3.5624    1.5334 H   0  0  0  0  0  0  0  0  0  0  0  0
    6.5782   -2.4610   -2.6615 H   0  0  0  0  0  0  0  0  0  0  0  0
    7.9973   -2.1423   -1.6942 H   0  0  0  0  0  0  0  0  0  0  0  0
    4.7937    0.2985   -1.0501 H   0  0  0  0  0  0  0  0  0  0  0  0
    4.5424   -1.3502    0.5622 H   0  0  0  0  0  0  0  0  0  0  0  0
    4.5019   -3.5595   -1.5391 H   0  0  0  0  0  0  0  0  0  0  0  0
    3.2130   -3.8364    0.4069 H   0  0  0  0  0  0  0  0  0  0  0  0
    5.5609   -5.5800    0.7819 H   0  0  0  0  0  0  0  0  0  0  0  0
    4.4247   -5.7933   -0.5829 H   0  0  0  0  0  0  0  0  0  0  0  0
    3.8756   -5.9352    1.0908 H   0  0  0  0  0  0  0  0  0  0  0  0
    2.7523   -1.7563   -1.5909 H   0  0  0  0  0  0  0  0  0  0  0  0
    6.2479   -0.0817   -3.6494 H   0  0  0  0  0  0  0  0  0  0  0  0
    5.0085    1.8262   -2.3611 H   0  0  0  0  0  0  0  0  0  0  0  0
    3.3457    3.1217   -3.6825 H   0  0  0  0  0  0  0  0  0  0  0  0
    2.7922    1.5937   -3.0499 H   0  0  0  0  0  0  0  0  0  0  0  0
    1.8911    1.7567   -5.1725 H   0  0  0  0  0  0  0  0  0  0  0  0
    2.6567   -0.4968   -4.6949 H   0  0  0  0  0  0  0  0  0  0  0  0
    5.3579    0.2677   -5.8868 H   0  0  0  0  0  0  0  0  0  0  0  0
    4.4502   -2.1377   -4.7110 H   0  0  0  0  0  0  0  0  0  0  0  0
    1.2213    0.8441   -6.9816 H   0  0  0  0  0  0  0  0  0  0  0  0
    1.1964   -1.7078   -5.5625 H   0  0  0  0  0  0  0  0  0  0  0  0
   -1.3734   -2.0177   -6.5247 H   0  0  0  0  0  0  0  0  0  0  0  0
   -0.0129   -3.0850   -6.7608 H   0  0  0  0  0  0  0  0  0  0  0  0
   -1.2459   -2.4033   -8.9064 H   0  0  0  0  0  0  0  0  0  0  0  0
    1.2283   -0.9534  -11.0632 H   0  0  0  0  0  0  0  0  0  0  0  0
   -0.0890    0.1870  -10.7791 H   0  0  0  0  0  0  0  0  0  0  0  0
   -0.2907   -2.6806  -11.2720 H   0  0  0  0  0  0  0  0  0  0  0  0
   -0.7453   -1.4763  -12.2659 H   0  0  0  0  0  0  0  0  0  0  0  0
   -0.8440    0.3576   -5.8089 H   0  0  0  0  0  0  0  0  0  0  0  0
    0.3435    0.3178   -4.6964 H   0  0  0  0  0  0  0  0  0  0  0  0
    4.3894    2.2116   -6.5785 H   0  0  0  0  0  0  0  0  0  0  0  0
    3.4676    3.4356   -5.9838 H   0  0  0  0  0  0  0  0  0  0  0  0
    5.9075    2.3682   -5.0855 H   0  0  0  0  0  0  0  0  0  0  0  0
    6.8150    2.2988   -3.7357 H   0  0  0  0  0  0  0  0  0  0  0  0
    7.8454   -4.5217   -0.8294 H   0  0  0  0  0  0  0  0  0  0  0  0
  1  2  1  0  0  0  0
  1 32  1  0  0  0  0
  1 33  1  0  0  0  0
  1 34  1  0  0  0  0
  2  3  1  0  0  0  0
  2  7  1  0  0  0  0
  2 31  1  0  0  0  0
  3  4  1  0  0  0  0
  3 35  1  0  0  0  0
  3 36  1  0  0  0  0
  4  5  1  0  0  0  0
  5  6  1  0  0  0  0
  5 11  1  0  0  0  0
  5 37  1  0  0  0  0
  6  7  1  0  0  0  0
  6 10  1  0  0  0  0
  6 38  1  0  0  0  0
  7  8  1  0  0  0  0
  7 39  1  0  0  0  0
  8  9  1  0  0  0  0
  8 40  1  0  0  0  0
  9 41  1  0  0  0  0
  9 42  1  0  0  0  0
  9 43  1  0  0  0  0
 10 44  1  0  0  0  0
 11 12  1  0  0  0  0
 12 13  1  0  0  0  0
 12 17  1  0  0  0  0
 12 45  1  0  0  0  0
 13 14  1  0  0  0  0
 13 30  1  0  0  0  0
 13 46  1  0  0  0  0
 14 15  1  0  0  0  0
 14 47  1  0  0  0  0
 14 48  1  0  0  0  0
 15 16  1  0  0  0  0
 15 29  1  0  0  0  0
 15 49  1  0  0  0  0
 16 17  1  0  0  0  0
 16 19  1  0  0  0  0
 16 50  1  0  0  0  0
 17 18  1  0  0  0  0
 17 51  1  0  0  0  0
 18 52  1  0  0  0  0
 19 20  1  0  0  0  0
 20 21  1  0  0  0  0
 20 25  1  0  0  0  0
 20 53  1  0  0  0  0
 21 22  1  0  0  0  0
 21 28  1  0  0  0  0
 21 54  1  0  0  0  0
 22 23  1  0  0  0  0
 22 55  1  0  0  0  0
 22 56  1  0  0  0  0
 23 24  2  0  0  0  0
 23 57  1  0  0  0  0
 24 25  1  0  0  0  0
 24 26  1  0  0  0  0
 26 27  1  0  0  0  0
 26 58  1  0  0  0  0
 26 59  1  0  0  0  0
 27 60  1  0  0  0  0
 27 61  1  0  0  0  0
 28 62  1  0  0  0  0
 28 63  1  0  0  0  0
 29 64  1  0  0  0  0
 29 65  1  0  0  0  0
 30 66  1  0  0  0  0
 30 67  1  0  0  0  0
 31 68  1  0  0  0  0
M  END
$$$$
Target_lig_540
 OpenBabel04172506213D

 91 96  0  0  1  0  0  0  0  0999 V2000
    0.5048    0.8764   -0.5873 C   0  0  2  0  0  0  0  0  0  0  0  0
   -0.9080    0.2912   -0.8757 C   0  0  2  0  0  0  0  0  0  0  0  0
   -1.7741    1.3188   -1.6224 C   0  0  0  0  0  0  0  0  0  0  0  0
   -1.9825    2.6229   -0.8318 C   0  0  2  0  0  0  0  0  0  0  0  0
   -0.5752    3.2530   -0.5551 C   0  0  2  0  0  0  0  0  0  0  0  0
    0.4431    2.2737    0.1093 C   0  0  1  0  0  0  0  0  0  0  0  0
    0.1993    2.0836    1.5076 O   0  0  0  0  0  0  0  0  0  0  0  0
   -0.5558    4.5495    0.0844 O   0  0  0  0  0  0  0  0  0  0  0  0
   -1.3949    5.5702   -0.4715 C   0  0  2  0  0  0  0  0  0  0  0  0
   -0.9738    6.1300   -1.8803 C   0  0  1  0  0  0  0  0  0  0  0  0
    0.3840    6.8270   -1.7679 C   0  0  0  0  0  0  0  0  0  0  0  0
    0.2854    7.9634   -0.7563 C   0  0  1  0  0  0  0  0  0  0  0  0
   -0.3492    7.5348    0.5827 C   0  0  1  0  0  0  0  0  0  0  0  0
   -1.5039    6.6870    0.4350 O   0  0  0  0  0  0  0  0  0  0  0  0
    0.6511    6.9703    1.6114 C   0  0  0  0  0  0  0  0  0  0  0  0
   -0.0195    6.5148    2.8367 N   0  0  0  0  0  0  0  0  0  0  0  0
    1.5542    8.5966   -0.6026 O   0  0  0  0  0  0  0  0  0  0  0  0
   -1.0023    5.2598   -3.0646 N   0  0  0  0  0  0  0  0  0  0  0  0
   -2.8614    2.4002    0.3237 N   0  0  0  0  0  0  0  0  0  0  0  0
   -1.6090   -0.1737    0.3276 N   0  0  0  0  0  0  0  0  0  0  0  0
    1.2335    0.8168   -1.8348 O   0  0  0  0  0  0  0  0  0  0  0  0
    2.6090    1.2167   -1.7567 C   0  0  2  0  0  0  0  0  0  0  0  0
    3.2817    1.0664   -3.1546 C   0  0  2  0  0  0  0  0  0  0  0  0
    4.4471    0.0572   -3.2678 C   0  0  1  0  0  0  0  0  0  0  0  0
    5.1356   -0.1911   -1.9082 C   0  0  2  0  0  0  0  0  0  0  0  0
    4.1825   -0.4076   -0.7101 C   0  0  1  0  0  0  0  0  0  0  0  0
    3.2565    0.6900   -0.6072 O   0  0  0  0  0  0  0  0  0  0  0  0
    3.5006   -1.8194   -0.4959 C   0  0  0  0  0  0  0  0  0  0  0  0
    4.2602   -2.7079    0.4468 N   0  0  0  0  0  0  0  0  0  0  0  0
    3.6888   -3.4981    1.5006 C   0  0  0  0  0  0  0  0  0  0  0  0
    2.9238   -2.9099    2.5576 C   0  0  0  0  0  0  0  0  0  0  0  0
    2.6116   -1.5426    2.6994 C   0  0  0  0  0  0  0  0  0  0  0  0
    1.9603   -1.0451    3.8361 C   0  0  0  0  0  0  0  0  0  0  0  0
    1.5972   -1.8982    4.8651 C   0  0  0  0  0  0  0  0  0  0  0  0
    1.8630   -3.2533    4.7405 C   0  0  0  0  0  0  0  0  0  0  0  0
    2.5105   -3.7650    3.6320 C   0  0  0  0  0  0  0  0  0  0  0  0
    2.7626   -5.0566    3.6920 N   0  0  0  0  0  0  0  0  0  0  0  0
    3.5143   -5.6161    2.7528 C   0  0  0  0  0  0  0  0  0  0  0  0
    4.0047   -4.9130    1.6201 C   0  0  0  0  0  0  0  0  0  0  0  0
    4.7986   -5.6955    0.7305 C   0  0  0  0  0  0  0  0  0  0  0  0
    5.0875   -7.0598    0.9803 C   0  0  0  0  0  0  0  0  0  0  0  0
    4.5852   -7.6828    2.1133 C   0  0  0  0  0  0  0  0  0  0  0  0
    3.7755   -6.9561    2.9853 C   0  0  0  0  0  0  0  0  0  0  0  0
    5.9389    0.9739   -1.5850 O   0  0  0  0  0  0  0  0  0  0  0  0
    4.1200   -1.1837   -3.9852 N   0  0  0  0  0  0  0  0  0  0  0  0
    3.7628    2.3562   -3.6261 O   0  0  0  0  0  0  0  0  0  0  0  0
    0.9997    0.1676    0.0869 H   0  0  0  0  0  0  0  0  0  0  0  0
   -0.7821   -0.5769   -1.5356 H   0  0  0  0  0  0  0  0  0  0  0  0
   -2.7404    0.8795   -1.9009 H   0  0  0  0  0  0  0  0  0  0  0  0
   -1.2838    1.5762   -2.5721 H   0  0  0  0  0  0  0  0  0  0  0  0
   -2.5490    3.3008   -1.4766 H   0  0  0  0  0  0  0  0  0  0  0  0
   -0.1203    3.4217   -1.5325 H   0  0  0  0  0  0  0  0  0  0  0  0
    1.4171    2.7713    0.0636 H   0  0  0  0  0  0  0  0  0  0  0  0
    0.9012    1.4981    1.8429 H   0  0  0  0  0  0  0  0  0  0  0  0
   -2.4187    5.1931   -0.5334 H   0  0  0  0  0  0  0  0  0  0  0  0
   -1.7066    6.9147   -2.1112 H   0  0  0  0  0  0  0  0  0  0  0  0
    0.6861    7.2518   -2.7349 H   0  0  0  0  0  0  0  0  0  0  0  0
    1.1770    6.1213   -1.4900 H   0  0  0  0  0  0  0  0  0  0  0  0
   -0.3755    8.7227   -1.1951 H   0  0  0  0  0  0  0  0  0  0  0  0
   -0.7347    8.4581    1.0379 H   0  0  0  0  0  0  0  0  0  0  0  0
    1.2175    6.1342    1.1925 H   0  0  0  0  0  0  0  0  0  0  0  0
    1.3749    7.7473    1.8853 H   0  0  0  0  0  0  0  0  0  0  0  0
   -0.5616    5.6817    2.5738 H   0  0  0  0  0  0  0  0  0  0  0  0
   -0.7427    7.1920    3.0819 H   0  0  0  0  0  0  0  0  0  0  0  0
    2.2329    7.9137   -0.4643 H   0  0  0  0  0  0  0  0  0  0  0  0
   -1.2172    4.2958   -2.8528 H   0  0  0  0  0  0  0  0  0  0  0  0
   -0.1258    5.2917   -3.5809 H   0  0  0  0  0  0  0  0  0  0  0  0
   -2.4218    1.6735    0.9100 H   0  0  0  0  0  0  0  0  0  0  0  0
   -3.7165    1.9386    0.0046 H   0  0  0  0  0  0  0  0  0  0  0  0
   -0.9645   -0.5769    1.0064 H   0  0  0  0  0  0  0  0  0  0  0  0
   -2.2779   -0.9036    0.0836 H   0  0  0  0  0  0  0  0  0  0  0  0
    2.5689    2.2977   -1.5861 H   0  0  0  0  0  0  0  0  0  0  0  0
    2.5117    0.8175   -3.8965 H   0  0  0  0  0  0  0  0  0  0  0  0
    5.1962    0.5268   -3.9235 H   0  0  0  0  0  0  0  0  0  0  0  0
    5.8393   -1.0267   -1.9918 H   0  0  0  0  0  0  0  0  0  0  0  0
    4.8072   -0.2645    0.1819 H   0  0  0  0  0  0  0  0  0  0  0  0
    2.4684   -1.6896   -0.1590 H   0  0  0  0  0  0  0  0  0  0  0  0
    3.4476   -2.3459   -1.4522 H   0  0  0  0  0  0  0  0  0  0  0  0
    4.9731   -3.2338   -0.0500 H   0  0  0  0  0  0  0  0  0  0  0  0
    2.9283   -0.8375    1.9432 H   0  0  0  0  0  0  0  0  0  0  0  0
    1.7703    0.0225    3.9332 H   0  0  0  0  0  0  0  0  0  0  0  0
    1.1326   -1.5186    5.7726 H   0  0  0  0  0  0  0  0  0  0  0  0
    1.6059   -3.9290    5.5604 H   0  0  0  0  0  0  0  0  0  0  0  0
    5.2093   -5.2605   -0.1743 H   0  0  0  0  0  0  0  0  0  0  0  0
    5.7135   -7.6124    0.2902 H   0  0  0  0  0  0  0  0  0  0  0  0
    4.8183   -8.7294    2.3202 H   0  0  0  0  0  0  0  0  0  0  0  0
    3.3667   -7.4596    3.8455 H   0  0  0  0  0  0  0  0  0  0  0  0
    6.0036    1.5664   -2.3534 H   0  0  0  0  0  0  0  0  0  0  0  0
    3.5092   -0.9895   -4.7817 H   0  0  0  0  0  0  0  0  0  0  0  0
    3.6662   -1.8843   -3.4150 H   0  0  0  0  0  0  0  0  0  0  0  0
    4.1811    2.8336   -2.8881 H   0  0  0  0  0  0  0  0  0  0  0  0
  1  2  1  0  0  0  0
  1  6  1  0  0  0  0
  1 21  1  0  0  0  0
  1 47  1  1  0  0  0
  2  3  1  0  0  0  0
  2 20  1  0  0  0  0
  2 48  1  6  0  0  0
  3  4  1  0  0  0  0
  3 49  1  0  0  0  0
  3 50  1  0  0  0  0
  4  5  1  0  0  0  0
  4 19  1  0  0  0  0
  4 51  1  6  0  0  0
  5  6  1  0  0  0  0
  5  8  1  0  0  0  0
  5 52  1  6  0  0  0
  6  7  1  0  0  0  0
  6 53  1  6  0  0  0
  7 54  1  0  0  0  0
  8  9  1  0  0  0  0
  9 10  1  0  0  0  0
  9 14  1  0  0  0  0
  9 55  1  6  0  0  0
 10 11  1  0  0  0  0
 10 18  1  0  0  0  0
 10 56  1  6  0  0  0
 11 12  1  0  0  0  0
 11 57  1  0  0  0  0
 11 58  1  0  0  0  0
 12 13  1  0  0  0  0
 12 17  1  0  0  0  0
 12 59  1  6  0  0  0
 13 14  1  0  0  0  0
 13 15  1  0  0  0  0
 13 60  1  1  0  0  0
 15 16  1  0  0  0  0
 15 61  1  0  0  0  0
 15 62  1  0  0  0  0
 16 63  1  0  0  0  0
 16 64  1  0  0  0  0
 17 65  1  0  0  0  0
 18 66  1  0  0  0  0
 18 67  1  0  0  0  0
 19 68  1  0  0  0  0
 19 69  1  0  0  0  0
 20 70  1  0  0  0  0
 20 71  1  0  0  0  0
 21 22  1  0  0  0  0
 22 23  1  0  0  0  0
 22 27  1  0  0  0  0
 22 72  1  1  0  0  0
 23 24  1  0  0  0  0
 23 46  1  0  0  0  0
 23 73  1  6  0  0  0
 24 25  1  0  0  0  0
 24 45  1  0  0  0  0
 24 74  1  6  0  0  0
 25 26  1  0  0  0  0
 25 44  1  0  0  0  0
 25 75  1  6  0  0  0
 26 27  1  0  0  0  0
 26 28  1  0  0  0  0
 26 76  1  1  0  0  0
 28 29  1  0  0  0  0
 28 77  1  0  0  0  0
 28 78  1  0  0  0  0
 29 30  1  0  0  0  0
 29 79  1  0  0  0  0
 30 31  1  0  0  0  0
 30 39  2  0  0  0  0
 31 32  1  0  0  0  0
 31 36  2  0  0  0  0
 32 33  2  0  0  0  0
 32 80  1  0  0  0  0
 33 34  1  0  0  0  0
 33 81  1  0  0  0  0
 34 35  2  0  0  0  0
 34 82  1  0  0  0  0
 35 36  1  0  0  0  0
 35 83  1  0  0  0  0
 36 37  1  0  0  0  0
 37 38  2  0  0  0  0
 38 39  1  0  0  0  0
 38 43  1  0  0  0  0
 39 40  1  0  0  0  0
 40 41  2  0  0  0  0
 40 84  1  0  0  0  0
 41 42  1  0  0  0  0
 41 85  1  0  0  0  0
 42 43  2  0  0  0  0
 42 86  1  0  0  0  0
 43 87  1  0  0  0  0
 44 88  1  0  0  0  0
 45 89  1  0  0  0  0
 45 90  1  0  0  0  0
 46 91  1  0  0  0  0
M  END
$$$$
Target_lig_175
 OpenBabel04172506213D

 83 85  0  0  1  0  0  0  0  0999 V2000
    0.5567    1.5882    0.4027 C   0  0  0  0  0  0  0  0  0  0  0  0
    1.4906    0.5463    1.0137 C   0  0  3  0  0  0  0  0  0  0  0  0
    1.0589   -0.8388    0.4935 C   0  0  3  0  0  0  0  0  0  0  0  0
   -0.3984   -1.1523    0.9003 C   0  0  3  0  0  0  0  0  0  0  0  0
   -1.3515   -0.1538    0.1867 C   0  0  3  0  0  0  0  0  0  0  0  0
   -0.9457    1.3093    0.6089 C   0  0  3  0  0  0  0  0  0  0  0  0
   -1.6835    2.3600   -0.1029 N   0  0  0  0  0  0  0  0  0  0  0  0
   -1.7472    3.6238    0.4638 C   0  0  0  0  0  0  0  0  0  0  0  0
   -1.3632    3.8699    1.6095 O   0  0  0  0  0  0  0  0  0  0  0  0
   -2.3158    4.7477   -0.4196 C   0  0  3  0  0  0  0  0  0  0  0  0
   -3.7359    4.4050   -0.8527 C   0  0  0  0  0  0  0  0  0  0  0  0
   -4.3955    5.5186   -1.6592 C   0  0  0  0  0  0  0  0  0  0  0  0
   -5.7256    5.0782   -2.0667 N   0  0  0  0  0  0  0  0  0  0  0  0
   -2.3118    5.9769    0.2975 O   0  0  0  0  0  0  0  0  0  0  0  0
   -2.7247   -0.4363    0.5865 O   0  0  0  0  0  0  0  0  0  0  0  0
   -3.3289   -1.5306   -0.1359 C   0  0  3  0  0  0  0  0  0  0  0  0
   -4.8749   -1.5507    0.0358 C   0  0  3  0  0  0  0  0  0  0  0  0
   -5.2468   -2.0242    1.4612 C   0  0  3  0  0  0  0  0  0  0  0  0
   -4.6169   -3.4133    1.7267 C   0  0  3  0  0  0  0  0  0  0  0  0
   -3.0973   -3.3068    1.5015 C   0  0  3  0  0  0  0  0  0  0  0  0
   -2.7796   -2.8062    0.1857 O   0  0  0  0  0  0  0  0  0  0  0  0
   -2.3875   -4.6614    1.6930 C   0  0  0  0  0  0  0  0  0  0  0  0
   -2.8063   -5.6453    0.7479 O   0  0  0  0  0  0  0  0  0  0  0  0
   -5.1739   -4.4365    0.8801 O   0  0  0  0  0  0  0  0  0  0  0  0
   -6.7125   -2.0843    1.6580 N   0  0  0  0  0  0  0  0  0  0  0  0
   -5.5027   -2.4582   -0.9017 O   0  0  0  0  0  0  0  0  0  0  0  0
   -0.6269   -1.0630    2.3188 O   0  0  0  0  0  0  0  0  0  0  0  0
    1.9693   -1.8919    0.8571 O   0  0  0  0  0  0  0  0  0  0  0  0
    3.0749   -1.9845   -0.0472 C   0  0  3  0  0  0  0  0  0  0  0  0
    3.7944   -3.3435    0.0612 C   0  0  3  0  0  0  0  0  0  0  0  0
    4.5678   -3.4237    1.3811 C   0  0  3  0  0  0  0  0  0  0  0  0
    5.5196   -2.2213    1.5220 C   0  0  3  0  0  0  0  0  0  0  0  0
    4.7092   -0.9202    1.3496 C   0  0  3  0  0  0  0  0  0  0  0  0
    4.0257   -0.9177    0.0734 O   0  0  0  0  0  0  0  0  0  0  0  0
    5.6355    0.3152    1.4367 C   0  0  0  0  0  0  0  0  0  0  0  0
    4.9057    1.5907    1.3640 N   0  0  0  0  0  0  0  0  0  0  0  0
    6.5801   -2.2813    0.5482 O   0  0  0  0  0  0  0  0  0  0  0  0
    5.3041   -4.6535    1.4256 O   0  0  0  0  0  0  0  0  0  0  0  0
    4.7569   -3.5036   -1.0165 O   0  0  0  0  0  0  0  0  0  0  0  0
    1.5756    0.6528    2.4682 N   0  0  0  0  0  0  0  0  0  0  0  0
    0.7611    1.6254   -0.6788 H   0  0  0  0  0  0  0  0  0  0  0  0
    0.8284    2.5825    0.7774 H   0  0  0  0  0  0  0  0  0  0  0  0
    2.4875    0.7633    0.6403 H   0  0  0  0  0  0  0  0  0  0  0  0
    1.0394   -0.8002   -0.6037 H   0  0  0  0  0  0  0  0  0  0  0  0
   -0.6103   -2.1847    0.6277 H   0  0  0  0  0  0  0  0  0  0  0  0
   -1.2680   -0.2420   -0.8981 H   0  0  0  0  0  0  0  0  0  0  0  0
   -1.1896    1.4311    1.6700 H   0  0  0  0  0  0  0  0  0  0  0  0
   -1.7564    2.3009   -1.1115 H   0  0  0  0  0  0  0  0  0  0  0  0
   -1.6580    4.8761   -1.2848 H   0  0  0  0  0  0  0  0  0  0  0  0
   -4.3435    4.2037    0.0398 H   0  0  0  0  0  0  0  0  0  0  0  0
   -3.7256    3.4802   -1.4443 H   0  0  0  0  0  0  0  0  0  0  0  0
   -3.7984    5.7544   -2.5488 H   0  0  0  0  0  0  0  0  0  0  0  0
   -4.4840    6.4319   -1.0602 H   0  0  0  0  0  0  0  0  0  0  0  0
   -5.6644    4.2867   -2.6894 H   0  0  0  0  0  0  0  0  0  0  0  0
   -6.1821    5.8322   -2.5982 H   0  0  0  0  0  0  0  0  0  0  0  0
   -2.1399    5.7505    1.2410 H   0  0  0  0  0  0  0  0  0  0  0  0
   -3.1299   -1.3784   -1.2029 H   0  0  0  0  0  0  0  0  0  0  0  0
   -5.2864   -0.5519   -0.1484 H   0  0  0  0  0  0  0  0  0  0  0  0
   -4.8453   -1.3160    2.1898 H   0  0  0  0  0  0  0  0  0  0  0  0
   -4.8126   -3.7235    2.7595 H   0  0  0  0  0  0  0  0  0  0  0  0
   -2.6874   -2.6121    2.2413 H   0  0  0  0  0  0  0  0  0  0  0  0
   -2.5718   -5.0547    2.6978 H   0  0  0  0  0  0  0  0  0  0  0  0
   -1.3071   -4.5396    1.5653 H   0  0  0  0  0  0  0  0  0  0  0  0
   -3.7850   -5.5825    0.7054 H   0  0  0  0  0  0  0  0  0  0  0  0
   -5.5225   -3.9789    0.0853 H   0  0  0  0  0  0  0  0  0  0  0  0
   -7.1247   -2.5854    0.8672 H   0  0  0  0  0  0  0  0  0  0  0  0
   -7.1053   -1.1440    1.6268 H   0  0  0  0  0  0  0  0  0  0  0  0
   -5.0098   -2.4259   -1.7413 H   0  0  0  0  0  0  0  0  0  0  0  0
   -1.5382   -0.7409    2.4503 H   0  0  0  0  0  0  0  0  0  0  0  0
    2.6898   -1.9274   -1.0731 H   0  0  0  0  0  0  0  0  0  0  0  0
    3.0865   -4.1758   -0.0110 H   0  0  0  0  0  0  0  0  0  0  0  0
    3.8670   -3.4333    2.2227 H   0  0  0  0  0  0  0  0  0  0  0  0
    6.0100   -2.2461    2.5003 H   0  0  0  0  0  0  0  0  0  0  0  0
    3.9630   -0.8547    2.1514 H   0  0  0  0  0  0  0  0  0  0  0  0
    6.3599    0.3074    0.6151 H   0  0  0  0  0  0  0  0  0  0  0  0
    6.1879    0.2922    2.3816 H   0  0  0  0  0  0  0  0  0  0  0  0
    4.4982    1.6607    0.4334 H   0  0  0  0  0  0  0  0  0  0  0  0
    5.5674    2.3597    1.4518 H   0  0  0  0  0  0  0  0  0  0  0  0
    6.1862   -2.6047   -0.2863 H   0  0  0  0  0  0  0  0  0  0  0  0
    5.7536   -4.7244    0.5616 H   0  0  0  0  0  0  0  0  0  0  0  0
    4.4941   -2.9105   -1.7452 H   0  0  0  0  0  0  0  0  0  0  0  0
    0.6671    0.5001    2.9095 H   0  0  0  0  0  0  0  0  0  0  0  0
    1.9268    1.5644    2.7533 H   0  0  0  0  0  0  0  0  0  0  0  0
  1  2  1  0  0  0  0
  1  6  1  0  0  0  0
  1 41  1  0  0  0  0
  1 42  1  0  0  0  0
  2  3  1  0  0  0  0
  2 40  1  0  0  0  0
  2 43  1  0  0  0  0
  3  4  1  0  0  0  0
  3 28  1  0  0  0  0
  3 44  1  0  0  0  0
  4  5  1  0  0  0  0
  4 27  1  0  0  0  0
  4 45  1  0  0  0  0
  5  6  1  0  0  0  0
  5 15  1  0  0  0  0
  5 46  1  0  0  0  0
  6  7  1  0  0  0  0
  6 47  1  0  0  0  0
  7  8  1  0  0  0  0
  7 48  1  0  0  0  0
  8  9  2  0  0  0  0
  8 10  1  0  0  0  0
 10 11  1  0  0  0  0
 10 14  1  0  0  0  0
 10 49  1  0  0  0  0
 11 12  1  0  0  0  0
 11 50  1  0  0  0  0
 11 51  1  0  0  0  0
 12 13  1  0  0  0  0
 12 52  1  0  0  0  0
 12 53  1  0  0  0  0
 13 54  1  0  0  0  0
 13 55  1  0  0  0  0
 14 56  1  0  0  0  0
 15 16  1  0  0  0  0
 16 17  1  0  0  0  0
 16 21  1  0  0  0  0
 16 57  1  0  0  0  0
 17 18  1  0  0  0  0
 17 26  1  0  0  0  0
 17 58  1  0  0  0  0
 18 19  1  0  0  0  0
 18 25  1  0  0  0  0
 18 59  1  0  0  0  0
 19 20  1  0  0  0  0
 19 24  1  0  0  0  0
 19 60  1  0  0  0  0
 20 21  1  0  0  0  0
 20 22  1  0  0  0  0
 20 61  1  0  0  0  0
 22 23  1  0  0  0  0
 22 62  1  0  0  0  0
 22 63  1  0  0  0  0
 23 64  1  0  0  0  0
 24 65  1  0  0  0  0
 25 66  1  0  0  0  0
 25 67  1  0  0  0  0
 26 68  1  0  0  0  0
 27 69  1  0  0  0  0
 28 29  1  0  0  0  0
 29 30  1  0  0  0  0
 29 34  1  0  0  0  0
 29 70  1  0  0  0  0
 30 31  1  0  0  0  0
 30 39  1  0  0  0  0
 30 71  1  0  0  0  0
 31 32  1  0  0  0  0
 31 38  1  0  0  0  0
 31 72  1  0  0  0  0
 32 33  1  0  0  0  0
 32 37  1  0  0  0  0
 32 73  1  0  0  0  0
 33 34  1  0  0  0  0
 33 35  1  0  0  0  0
 33 74  1  0  0  0  0
 35 36  1  0  0  0  0
 35 75  1  0  0  0  0
 35 76  1  0  0  0  0
 36 77  1  0  0  0  0
 36 78  1  0  0  0  0
 37 79  1  0  0  0  0
 38 80  1  0  0  0  0
 39 81  1  0  0  0  0
 40 82  1  0  0  0  0
 40 83  1  0  0  0  0
M  END
$$$$
Target_lig_1270
 OpenBabel04172506213D

 76 78  0  0  1  0  0  0  0  0999 V2000
    0.2754   -1.4285    2.1382 C   0  0  0  0  0  0  0  0  0  0  0  0
   -0.5667   -2.6999    2.1992 C   0  0  3  0  0  0  0  0  0  0  0  0
   -1.0346   -3.1822    0.7618 C   0  0  3  0  0  0  0  0  0  0  0  0
   -1.7969   -4.5091    0.7884 C   0  0  0  0  0  0  0  0  0  0  0  0
   -0.8589   -5.7108    0.7674 C   0  0  0  0  0  0  0  0  0  0  0  0
    0.0878   -5.6703   -0.4384 C   0  0  3  0  0  0  0  0  0  0  0  0
    0.7461   -4.2413   -0.5882 C   0  0  3  0  0  0  0  0  0  0  0  0
   -0.1167   -3.1184   -0.3484 O   0  0  0  0  0  0  0  0  0  0  0  0
    1.5575   -4.0185   -1.7801 O   0  0  0  0  0  0  0  0  0  0  0  0
    1.0392   -4.2755   -3.1151 C   0  0  3  0  0  0  0  0  0  0  0  0
    2.2533   -4.3235   -4.1237 C   0  0  3  0  0  0  0  0  0  0  0  0
    2.7541   -2.9404   -4.5655 C   0  0  0  0  0  0  0  0  0  0  0  0
    1.6769   -1.8961   -4.8666 C   0  0  3  0  0  0  0  0  0  0  0  0
    0.6316   -1.8448   -3.6997 C   0  0  3  0  0  0  0  0  0  0  0  0
   -0.0339   -3.2494   -3.5918 C   0  0  3  0  0  0  0  0  0  0  0  0
   -1.1868   -3.2690   -2.7466 O   0  0  0  0  0  0  0  0  0  0  0  0
   -0.3172   -0.7359   -3.8106 O   0  0  0  0  0  0  0  0  0  0  0  0
    0.3168    0.5380   -3.9936 C   0  0  3  0  0  0  0  0  0  0  0  0
    1.1975    1.0271   -2.8092 C   0  0  3  0  0  0  0  0  0  0  0  0
    0.3536    1.6438   -1.6554 C   0  0  3  0  0  0  0  0  0  0  0  0
   -0.7411    2.6323   -2.1810 C   0  0  3  0  0  0  0  0  0  0  0  0
   -1.4786    2.0149   -3.3814 C   0  0  0  0  0  0  0  0  0  0  0  0
   -0.5866    1.5820   -4.3968 O   0  0  0  0  0  0  0  0  0  0  0  0
   -1.7669    2.9832   -1.0914 C   0  0  0  0  0  0  0  0  0  0  0  0
   -0.1773    3.8943   -2.5812 O   0  0  0  0  0  0  0  0  0  0  0  0
    1.1848    2.2980   -0.6105 N   0  0  0  0  0  0  0  0  0  0  0  0
    2.0697    1.4008    0.1052 C   0  0  0  0  0  0  0  0  0  0  0  0
    2.1788    1.9673   -3.3022 O   0  0  0  0  0  0  0  0  0  0  0  0
    1.0596   -2.0236   -6.1962 N   0  0  0  0  0  0  0  0  0  0  0  0
    2.0146   -5.1301   -5.3302 N   0  0  0  0  0  0  0  0  0  0  0  0
   -0.6653   -6.2095   -1.5939 N   0  0  0  0  0  0  0  0  0  0  0  0
    0.0878   -3.7226    3.0295 N   0  0  0  0  0  0  0  0  0  0  0  0
    0.0501   -3.4105    4.4659 C   0  0  0  0  0  0  0  0  0  0  0  0
   -0.3281   -0.5899    1.7702 H   0  0  0  0  0  0  0  0  0  0  0  0
    1.1454   -1.5601    1.4922 H   0  0  0  0  0  0  0  0  0  0  0  0
    0.6421   -1.1203    3.1230 H   0  0  0  0  0  0  0  0  0  0  0  0
   -1.5078   -2.4414    2.7148 H   0  0  0  0  0  0  0  0  0  0  0  0
   -1.7846   -2.4252    0.4879 H   0  0  0  0  0  0  0  0  0  0  0  0
   -2.4446   -4.5503   -0.0967 H   0  0  0  0  0  0  0  0  0  0  0  0
   -2.4616   -4.5570    1.6585 H   0  0  0  0  0  0  0  0  0  0  0  0
   -1.4582   -6.6301    0.7672 H   0  0  0  0  0  0  0  0  0  0  0  0
   -0.2664   -5.7623    1.6839 H   0  0  0  0  0  0  0  0  0  0  0  0
    0.9089   -6.3784   -0.2770 H   0  0  0  0  0  0  0  0  0  0  0  0
    1.4847   -4.1825    0.2211 H   0  0  0  0  0  0  0  0  0  0  0  0
    0.6353   -5.2832   -3.1345 H   0  0  0  0  0  0  0  0  0  0  0  0
    3.0970   -4.8045   -3.6073 H   0  0  0  0  0  0  0  0  0  0  0  0
    3.4417   -3.0286   -5.4221 H   0  0  0  0  0  0  0  0  0  0  0  0
    3.3732   -2.5385   -3.7538 H   0  0  0  0  0  0  0  0  0  0  0  0
    2.2239   -0.9519   -4.9049 H   0  0  0  0  0  0  0  0  0  0  0  0
    1.1512   -1.6820   -2.7598 H   0  0  0  0  0  0  0  0  0  0  0  0
   -0.4179   -3.5623   -4.5727 H   0  0  0  0  0  0  0  0  0  0  0  0
   -0.8734   -3.0081   -1.8611 H   0  0  0  0  0  0  0  0  0  0  0  0
    0.9408    0.4794   -4.8838 H   0  0  0  0  0  0  0  0  0  0  0  0
    1.7824    0.2025   -2.4035 H   0  0  0  0  0  0  0  0  0  0  0  0
   -0.1880    0.8083   -1.1866 H   0  0  0  0  0  0  0  0  0  0  0  0
   -2.1027    2.7871   -3.8509 H   0  0  0  0  0  0  0  0  0  0  0  0
   -2.1249    1.1898   -3.0854 H   0  0  0  0  0  0  0  0  0  0  0  0
   -2.1696    2.0862   -0.6167 H   0  0  0  0  0  0  0  0  0  0  0  0
   -2.5989    3.5513   -1.5225 H   0  0  0  0  0  0  0  0  0  0  0  0
   -1.3299    3.6301   -0.3254 H   0  0  0  0  0  0  0  0  0  0  0  0
    0.3984    3.7413   -3.3455 H   0  0  0  0  0  0  0  0  0  0  0  0
    0.5974    2.8125    0.0412 H   0  0  0  0  0  0  0  0  0  0  0  0
    2.9139    1.0847   -0.5112 H   0  0  0  0  0  0  0  0  0  0  0  0
    1.5422    0.5215    0.4789 H   0  0  0  0  0  0  0  0  0  0  0  0
    2.4880    1.9246    0.9748 H   0  0  0  0  0  0  0  0  0  0  0  0
    1.7664    2.4883   -4.0081 H   0  0  0  0  0  0  0  0  0  0  0  0
    0.5619   -2.8977   -6.3216 H   0  0  0  0  0  0  0  0  0  0  0  0
    1.7693   -1.9831   -6.9267 H   0  0  0  0  0  0  0  0  0  0  0  0
    1.3045   -4.7227   -5.9280 H   0  0  0  0  0  0  0  0  0  0  0  0
    1.6878   -6.0590   -5.0705 H   0  0  0  0  0  0  0  0  0  0  0  0
   -1.5140   -5.6716   -1.7443 H   0  0  0  0  0  0  0  0  0  0  0  0
   -0.9371   -7.1709   -1.4041 H   0  0  0  0  0  0  0  0  0  0  0  0
    1.0508   -3.8508    2.7485 H   0  0  0  0  0  0  0  0  0  0  0  0
   -0.9513   -3.1262    4.8101 H   0  0  0  0  0  0  0  0  0  0  0  0
    0.7501   -2.6104    4.7258 H   0  0  0  0  0  0  0  0  0  0  0  0
    0.3453   -4.2944    5.0417 H   0  0  0  0  0  0  0  0  0  0  0  0
  1  2  1  0  0  0  0
  1 34  1  0  0  0  0
  1 35  1  0  0  0  0
  1 36  1  0  0  0  0
  2  3  1  0  0  0  0
  2 32  1  0  0  0  0
  2 37  1  0  0  0  0
  3  4  1  0  0  0  0
  3  8  1  0  0  0  0
  3 38  1  0  0  0  0
  4  5  1  0  0  0  0
  4 39  1  0  0  0  0
  4 40  1  0  0  0  0
  5  6  1  0  0  0  0
  5 41  1  0  0  0  0
  5 42  1  0  0  0  0
  6  7  1  0  0  0  0
  6 31  1  0  0  0  0
  6 43  1  0  0  0  0
  7  8  1  0  0  0  0
  7  9  1  0  0  0  0
  7 44  1  0  0  0  0
  9 10  1  0  0  0  0
 10 11  1  0  0  0  0
 10 15  1  0  0  0  0
 10 45  1  0  0  0  0
 11 12  1  0  0  0  0
 11 30  1  0  0  0  0
 11 46  1  0  0  0  0
 12 13  1  0  0  0  0
 12 47  1  0  0  0  0
 12 48  1  0  0  0  0
 13 14  1  0  0  0  0
 13 29  1  0  0  0  0
 13 49  1  0  0  0  0
 14 15  1  0  0  0  0
 14 17  1  0  0  0  0
 14 50  1  0  0  0  0
 15 16  1  0  0  0  0
 15 51  1  0  0  0  0
 16 52  1  0  0  0  0
 17 18  1  0  0  0  0
 18 19  1  0  0  0  0
 18 23  1  0  0  0  0
 18 53  1  0  0  0  0
 19 20  1  0  0  0  0
 19 28  1  0  0  0  0
 19 54  1  0  0  0  0
 20 21  1  0  0  0  0
 20 26  1  0  0  0  0
 20 55  1  0  0  0  0
 21 22  1  0  0  0  0
 21 24  1  0  0  0  0
 21 25  1  0  0  0  0
 22 23  1  0  0  0  0
 22 56  1  0  0  0  0
 22 57  1  0  0  0  0
 24 58  1  0  0  0  0
 24 59  1  0  0  0  0
 24 60  1  0  0  0  0
 25 61  1  0  0  0  0
 26 27  1  0  0  0  0
 26 62  1  0  0  0  0
 27 63  1  0  0  0  0
 27 64  1  0  0  0  0
 27 65  1  0  0  0  0
 28 66  1  0  0  0  0
 29 67  1  0  0  0  0
 29 68  1  0  0  0  0
 30 69  1  0  0  0  0
 30 70  1  0  0  0  0
 31 71  1  0  0  0  0
 31 72  1  0  0  0  0
 32 33  1  0  0  0  0
 32 73  1  0  0  0  0
 33 74  1  0  0  0  0
 33 75  1  0  0  0  0
 33 76  1  0  0  0  0
M  END
$$$$
Target_lig_1271
 OpenBabel04172506213D

 74 76  0  0  1  0  0  0  0  0999 V2000
    0.3648   -0.4906   -0.5809 C   0  0  0  0  0  0  0  0  0  0  0  0
    1.8746   -0.3364   -0.7666 C   0  0  0  0  0  0  0  0  0  0  0  0
    2.5063   -0.6478    0.5055 N   0  0  0  0  0  0  0  0  0  0  0  0
    3.9812   -0.7486    0.5207 C   0  0  3  0  0  0  0  0  0  0  0  0
    4.3123   -0.9250    2.0180 C   0  0  0  0  0  0  0  0  0  0  0  0
    3.9569    0.3536    2.8040 C   0  0  3  0  0  0  0  0  0  0  0  0
    4.8100    1.5413    2.2734 C   0  0  3  0  0  0  0  0  0  0  0  0
    4.4796    1.7447    0.7472 C   0  0  3  0  0  0  0  0  0  0  0  0
    4.8326    0.4425   -0.0457 C   0  0  3  0  0  0  0  0  0  0  0  0
    4.7312    0.4291   -1.4897 O   0  0  0  0  0  0  0  0  0  0  0  0
    5.5374    1.3885   -2.1916 C   0  0  3  0  0  0  0  0  0  0  0  0
    5.4884    1.1559   -3.7337 C   0  0  3  0  0  0  0  0  0  0  0  0
    6.4525    0.0302   -4.2308 C   0  0  3  0  0  0  0  0  0  0  0  0
    7.8594    0.1746   -3.5686 C   0  0  3  0  0  0  0  0  0  0  0  0
    7.6894    0.3273   -2.0501 C   0  0  0  0  0  0  0  0  0  0  0  0
    6.8907    1.4614   -1.7240 O   0  0  0  0  0  0  0  0  0  0  0  0
    8.7716   -1.0292   -3.8515 C   0  0  0  0  0  0  0  0  0  0  0  0
    8.5337    1.3363   -4.0938 O   0  0  0  0  0  0  0  0  0  0  0  0
    6.5873    0.0336   -5.7171 N   0  0  0  0  0  0  0  0  0  0  0  0
    5.3880   -0.3865   -6.4245 C   0  0  0  0  0  0  0  0  0  0  0  0
    5.8040    2.4012   -4.3935 O   0  0  0  0  0  0  0  0  0  0  0  0
    5.2308    2.8848    0.2846 O   0  0  0  0  0  0  0  0  0  0  0  0
    6.2407    1.3361    2.3227 O   0  0  0  0  0  0  0  0  0  0  0  0
    6.8715    1.0986    3.5898 C   0  0  3  0  0  0  0  0  0  0  0  0
    6.7639    2.3088    4.5752 C   0  0  3  0  0  0  0  0  0  0  0  0
    8.0947    2.8784    5.0748 C   0  0  0  0  0  0  0  0  0  0  0  0
    9.3016    2.3360    4.4030 C   0  0  0  0  0  0  0  0  0  0  0  0
    9.2937    1.2497    3.6239 C   0  0  0  0  0  0  0  0  0  0  0  0
    8.1646    0.5393    3.3288 O   0  0  0  0  0  0  0  0  0  0  0  0
   10.5594    0.6455    3.0668 C   0  0  0  0  0  0  0  0  0  0  0  0
   10.5225    0.5476    1.6111 N   0  0  0  0  0  0  0  0  0  0  0  0
    5.9074    2.0101    5.7591 N   0  0  0  0  0  0  0  0  0  0  0  0
    4.0327    0.1023    4.2597 N   0  0  0  0  0  0  0  0  0  0  0  0
   -0.1720   -0.1399   -1.4669 H   0  0  0  0  0  0  0  0  0  0  0  0
    0.0036    0.0860    0.2799 H   0  0  0  0  0  0  0  0  0  0  0  0
    0.0941   -1.5400   -0.4146 H   0  0  0  0  0  0  0  0  0  0  0  0
    2.0871    0.6947   -1.0620 H   0  0  0  0  0  0  0  0  0  0  0  0
    2.2118   -1.0152   -1.5545 H   0  0  0  0  0  0  0  0  0  0  0  0
    2.1111   -1.5167    0.8686 H   0  0  0  0  0  0  0  0  0  0  0  0
    4.2603   -1.6612   -0.0229 H   0  0  0  0  0  0  0  0  0  0  0  0
    5.3743   -1.1650    2.1329 H   0  0  0  0  0  0  0  0  0  0  0  0
    3.7611   -1.7857    2.4255 H   0  0  0  0  0  0  0  0  0  0  0  0
    2.9076    0.6254    2.6311 H   0  0  0  0  0  0  0  0  0  0  0  0
    4.5678    2.4670    2.8071 H   0  0  0  0  0  0  0  0  0  0  0  0
    3.4281    1.9997    0.6112 H   0  0  0  0  0  0  0  0  0  0  0  0
    5.8812    0.2009    0.1617 H   0  0  0  0  0  0  0  0  0  0  0  0
    5.0917    2.3728   -2.0210 H   0  0  0  0  0  0  0  0  0  0  0  0
    4.4615    0.8965   -4.0195 H   0  0  0  0  0  0  0  0  0  0  0  0
    6.0450   -0.9382   -3.9156 H   0  0  0  0  0  0  0  0  0  0  0  0
    8.6674    0.5079   -1.5900 H   0  0  0  0  0  0  0  0  0  0  0  0
    7.2659   -0.5754   -1.5988 H   0  0  0  0  0  0  0  0  0  0  0  0
    8.3183   -1.9633   -3.5049 H   0  0  0  0  0  0  0  0  0  0  0  0
    9.7379   -0.9083   -3.3463 H   0  0  0  0  0  0  0  0  0  0  0  0
    9.0110   -1.1320   -4.9150 H   0  0  0  0  0  0  0  0  0  0  0  0
    8.4860    2.0425   -3.4198 H   0  0  0  0  0  0  0  0  0  0  0  0
    7.3741   -0.5439   -6.0086 H   0  0  0  0  0  0  0  0  0  0  0  0
    4.5909    0.3572   -6.3434 H   0  0  0  0  0  0  0  0  0  0  0  0
    5.0250   -1.3570   -6.0719 H   0  0  0  0  0  0  0  0  0  0  0  0
    5.6175   -0.4901   -7.4913 H   0  0  0  0  0  0  0  0  0  0  0  0
    6.6857    2.2761   -4.7999 H   0  0  0  0  0  0  0  0  0  0  0  0
    6.1685    2.6581    0.4233 H   0  0  0  0  0  0  0  0  0  0  0  0
    6.3785    0.2435    4.0436 H   0  0  0  0  0  0  0  0  0  0  0  0
    6.2435    3.1247    4.0620 H   0  0  0  0  0  0  0  0  0  0  0  0
    8.2233    2.7091    6.1525 H   0  0  0  0  0  0  0  0  0  0  0  0
    8.0787    3.9694    4.9487 H   0  0  0  0  0  0  0  0  0  0  0  0
   10.2411    2.8381    4.6183 H   0  0  0  0  0  0  0  0  0  0  0  0
   10.6836   -0.3588    3.4905 H   0  0  0  0  0  0  0  0  0  0  0  0
   11.4391    1.2280    3.3594 H   0  0  0  0  0  0  0  0  0  0  0  0
    9.7032   -0.0057    1.3623 H   0  0  0  0  0  0  0  0  0  0  0  0
   11.3358    0.0236    1.2970 H   0  0  0  0  0  0  0  0  0  0  0  0
    6.3569    1.2868    6.3165 H   0  0  0  0  0  0  0  0  0  0  0  0
    5.0404    1.5701    5.4168 H   0  0  0  0  0  0  0  0  0  0  0  0
    4.6393   -0.7018    4.4323 H   0  0  0  0  0  0  0  0  0  0  0  0
    3.1135   -0.2358    4.5623 H   0  0  0  0  0  0  0  0  0  0  0  0
  1  2  1  0  0  0  0
  1 34  1  0  0  0  0
  1 35  1  0  0  0  0
  1 36  1  0  0  0  0
  2  3  1  0  0  0  0
  2 37  1  0  0  0  0
  2 38  1  0  0  0  0
  3  4  1  0  0  0  0
  3 39  1  0  0  0  0
  4  5  1  0  0  0  0
  4  9  1  0  0  0  0
  4 40  1  0  0  0  0
  5  6  1  0  0  0  0
  5 41  1  0  0  0  0
  5 42  1  0  0  0  0
  6  7  1  0  0  0  0
  6 33  1  0  0  0  0
  6 43  1  0  0  0  0
  7  8  1  0  0  0  0
  7 23  1  0  0  0  0
  7 44  1  0  0  0  0
  8  9  1  0  0  0  0
  8 22  1  0  0  0  0
  8 45  1  0  0  0  0
  9 10  1  0  0  0  0
  9 46  1  0  0  0  0
 10 11  1  0  0  0  0
 11 12  1  0  0  0  0
 11 16  1  0  0  0  0
 11 47  1  0  0  0  0
 12 13  1  0  0  0  0
 12 21  1  0  0  0  0
 12 48  1  0  0  0  0
 13 14  1  0  0  0  0
 13 19  1  0  0  0  0
 13 49  1  0  0  0  0
 14 15  1  0  0  0  0
 14 17  1  0  0  0  0
 14 18  1  0  0  0  0
 15 16  1  0  0  0  0
 15 50  1  0  0  0  0
 15 51  1  0  0  0  0
 17 52  1  0  0  0  0
 17 53  1  0  0  0  0
 17 54  1  0  0  0  0
 18 55  1  0  0  0  0
 19 20  1  0  0  0  0
 19 56  1  0  0  0  0
 20 57  1  0  0  0  0
 20 58  1  0  0  0  0
 20 59  1  0  0  0  0
 21 60  1  0  0  0  0
 22 61  1  0  0  0  0
 23 24  1  0  0  0  0
 24 25  1  0  0  0  0
 24 29  1  0  0  0  0
 24 62  1  0  0  0  0
 25 26  1  0  0  0  0
 25 32  1  0  0  0  0
 25 63  1  0  0  0  0
 26 27  1  0  0  0  0
 26 64  1  0  0  0  0
 26 65  1  0  0  0  0
 27 28  2  0  0  0  0
 27 66  1  0  0  0  0
 28 29  1  0  0  0  0
 28 30  1  0  0  0  0
 30 31  1  0  0  0  0
 30 67  1  0  0  0  0
 30 68  1  0  0  0  0
 31 69  1  0  0  0  0
 31 70  1  0  0  0  0
 32 71  1  0  0  0  0
 32 72  1  0  0  0  0
 33 73  1  0  0  0  0
 33 74  1  0  0  0  0
M  END
$$$$
Target_lig_1272
 OpenBabel04172506213D

 69 71  0  0  1  0  0  0  0  0999 V2000
    0.4328    1.6477    0.3422 C   0  0  0  0  0  0  0  0  0  0  0  0
    1.4213    0.6355    0.9451 C   0  0  3  0  0  0  0  0  0  0  0  0
    1.0072   -0.7806    0.4795 C   0  0  3  0  0  0  0  0  0  0  0  0
   -0.4297   -1.1026    0.9423 C   0  0  3  0  0  0  0  0  0  0  0  0
   -1.4148   -0.1817    0.1959 C   0  0  3  0  0  0  0  0  0  0  0  0
   -1.0657    1.3112    0.5288 C   0  0  3  0  0  0  0  0  0  0  0  0
   -1.8455    2.2486   -0.3064 N   0  0  0  0  0  0  0  0  0  0  0  0
   -2.7697   -0.4993    0.6185 O   0  0  0  0  0  0  0  0  0  0  0  0
   -3.3637   -1.5767   -0.1203 C   0  0  3  0  0  0  0  0  0  0  0  0
   -4.9073   -1.5818    0.0053 C   0  0  3  0  0  0  0  0  0  0  0  0
   -5.3134   -1.9866    1.4268 C   0  0  3  0  0  0  0  0  0  0  0  0
   -4.7148   -3.3592    1.7776 C   0  0  3  0  0  0  0  0  0  0  0  0
   -3.1899   -3.3109    1.5638 C   0  0  3  0  0  0  0  0  0  0  0  0
   -2.8436   -2.8666    0.2296 O   0  0  0  0  0  0  0  0  0  0  0  0
   -2.5625   -4.7020    1.8047 C   0  0  0  0  0  0  0  0  0  0  0  0
   -1.0964   -4.6701    1.7370 N   0  0  0  0  0  0  0  0  0  0  0  0
   -5.3139   -4.3951    0.9787 O   0  0  0  0  0  0  0  0  0  0  0  0
   -6.7421   -2.0327    1.5330 O   0  0  0  0  0  0  0  0  0  0  0  0
   -5.4883   -2.5515   -0.9074 O   0  0  0  0  0  0  0  0  0  0  0  0
   -0.6201   -0.9080    2.3567 O   0  0  0  0  0  0  0  0  0  0  0  0
    1.9182   -1.8177    0.8846 O   0  0  0  0  0  0  0  0  0  0  0  0
    3.0180   -1.9617   -0.0135 C   0  0  3  0  0  0  0  0  0  0  0  0
    3.7173   -3.3301    0.1476 C   0  0  3  0  0  0  0  0  0  0  0  0
    4.4372   -3.4015    1.5105 C   0  0  3  0  0  0  0  0  0  0  0  0
    5.3993   -2.1963    1.6684 C   0  0  3  0  0  0  0  0  0  0  0  0
    4.6193   -0.8914    1.4006 C   0  0  3  0  0  0  0  0  0  0  0  0
    3.9822   -0.9194    0.1062 O   0  0  0  0  0  0  0  0  0  0  0  0
    5.5143    0.3611    1.4712 C   0  0  0  0  0  0  0  0  0  0  0  0
    6.5729    0.3513    0.5133 O   0  0  0  0  0  0  0  0  0  0  0  0
    6.5190   -2.2896    0.7656 O   0  0  0  0  0  0  0  0  0  0  0  0
    5.1647   -4.6835    1.6683 N   0  0  0  0  0  0  0  0  0  0  0  0
    4.6959   -3.5285   -0.9042 O   0  0  0  0  0  0  0  0  0  0  0  0
    1.5469    0.7632    2.4036 N   0  0  0  0  0  0  0  0  0  0  0  0
    0.6547    1.6997   -0.7337 H   0  0  0  0  0  0  0  0  0  0  0  0
    0.6442    2.6512    0.7351 H   0  0  0  0  0  0  0  0  0  0  0  0
    2.4121    0.8765    0.5507 H   0  0  0  0  0  0  0  0  0  0  0  0
    0.9758   -0.7842   -0.6193 H   0  0  0  0  0  0  0  0  0  0  0  0
   -0.6360   -2.1522    0.7460 H   0  0  0  0  0  0  0  0  0  0  0  0
   -1.3238   -0.3266   -0.8891 H   0  0  0  0  0  0  0  0  0  0  0  0
   -1.3523    1.5123    1.5678 H   0  0  0  0  0  0  0  0  0  0  0  0
   -1.5493    2.1870   -1.2805 H   0  0  0  0  0  0  0  0  0  0  0  0
   -1.6244    3.2061   -0.0232 H   0  0  0  0  0  0  0  0  0  0  0  0
   -3.1356   -1.4396   -1.1845 H   0  0  0  0  0  0  0  0  0  0  0  0
   -5.3343   -0.6047   -0.2426 H   0  0  0  0  0  0  0  0  0  0  0  0
   -4.9604   -1.2352    2.1440 H   0  0  0  0  0  0  0  0  0  0  0  0
   -4.9471   -3.6149    2.8167 H   0  0  0  0  0  0  0  0  0  0  0  0
   -2.7595   -2.6039    2.2815 H   0  0  0  0  0  0  0  0  0  0  0  0
   -2.9128   -5.4158    1.0513 H   0  0  0  0  0  0  0  0  0  0  0  0
   -2.8529   -5.0740    2.7928 H   0  0  0  0  0  0  0  0  0  0  0  0
   -0.8282   -4.4161    0.7871 H   0  0  0  0  0  0  0  0  0  0  0  0
   -0.7309   -5.6071    1.8998 H   0  0  0  0  0  0  0  0  0  0  0  0
   -5.3733   -4.0523    0.0616 H   0  0  0  0  0  0  0  0  0  0  0  0
   -7.0333   -2.7077    0.8888 H   0  0  0  0  0  0  0  0  0  0  0  0
   -5.0634   -2.4342   -1.7768 H   0  0  0  0  0  0  0  0  0  0  0  0
   -1.5839   -0.8136    2.4887 H   0  0  0  0  0  0  0  0  0  0  0  0
    2.6475   -1.9248   -1.0453 H   0  0  0  0  0  0  0  0  0  0  0  0
    2.9810   -4.1389    0.0721 H   0  0  0  0  0  0  0  0  0  0  0  0
    3.6894   -3.3473    2.3091 H   0  0  0  0  0  0  0  0  0  0  0  0
    5.8133   -2.1769    2.6781 H   0  0  0  0  0  0  0  0  0  0  0  0
    3.8463   -0.7841    2.1687 H   0  0  0  0  0  0  0  0  0  0  0  0
    5.9613    0.4533    2.4659 H   0  0  0  0  0  0  0  0  0  0  0  0
    4.9175    1.2562    1.2759 H   0  0  0  0  0  0  0  0  0  0  0  0
    6.9754   -0.5426    0.5614 H   0  0  0  0  0  0  0  0  0  0  0  0
    6.2084   -2.7809   -0.0209 H   0  0  0  0  0  0  0  0  0  0  0  0
    5.8036   -4.7789    0.8744 H   0  0  0  0  0  0  0  0  0  0  0  0
    4.5008   -5.4502    1.5679 H   0  0  0  0  0  0  0  0  0  0  0  0
    4.6763   -2.7384   -1.4797 H   0  0  0  0  0  0  0  0  0  0  0  0
    0.7722    0.2496    2.8485 H   0  0  0  0  0  0  0  0  0  0  0  0
    1.4894    1.7309    2.7076 H   0  0  0  0  0  0  0  0  0  0  0  0
  1  2  1  0  0  0  0
  1  6  1  0  0  0  0
  1 34  1  0  0  0  0
  1 35  1  0  0  0  0
  2  3  1  0  0  0  0
  2 33  1  0  0  0  0
  2 36  1  0  0  0  0
  3  4  1  0  0  0  0
  3 21  1  0  0  0  0
  3 37  1  0  0  0  0
  4  5  1  0  0  0  0
  4 20  1  0  0  0  0
  4 38  1  0  0  0  0
  5  6  1  0  0  0  0
  5  8  1  0  0  0  0
  5 39  1  0  0  0  0
  6  7  1  0  0  0  0
  6 40  1  0  0  0  0
  7 41  1  0  0  0  0
  7 42  1  0  0  0  0
  8  9  1  0  0  0  0
  9 10  1  0  0  0  0
  9 14  1  0  0  0  0
  9 43  1  0  0  0  0
 10 11  1  0  0  0  0
 10 19  1  0  0  0  0
 10 44  1  0  0  0  0
 11 12  1  0  0  0  0
 11 18  1  0  0  0  0
 11 45  1  0  0  0  0
 12 13  1  0  0  0  0
 12 17  1  0  0  0  0
 12 46  1  0  0  0  0
 13 14  1  0  0  0  0
 13 15  1  0  0  0  0
 13 47  1  0  0  0  0
 15 16  1  0  0  0  0
 15 48  1  0  0  0  0
 15 49  1  0  0  0  0
 16 50  1  0  0  0  0
 16 51  1  0  0  0  0
 17 52  1  0  0  0  0
 18 53  1  0  0  0  0
 19 54  1  0  0  0  0
 20 55  1  0  0  0  0
 21 22  1  0  0  0  0
 22 23  1  0  0  0  0
 22 27  1  0  0  0  0
 22 56  1  0  0  0  0
 23 24  1  0  0  0  0
 23 32  1  0  0  0  0
 23 57  1  0  0  0  0
 24 25  1  0  0  0  0
 24 31  1  0  0  0  0
 24 58  1  0  0  0  0
 25 26  1  0  0  0  0
 25 30  1  0  0  0  0
 25 59  1  0  0  0  0
 26 27  1  0  0  0  0
 26 28  1  0  0  0  0
 26 60  1  0  0  0  0
 28 29  1  0  0  0  0
 28 61  1  0  0  0  0
 28 62  1  0  0  0  0
 29 63  1  0  0  0  0
 30 64  1  0  0  0  0
 31 65  1  0  0  0  0
 31 66  1  0  0  0  0
 32 67  1  0  0  0  0
 33 68  1  0  0  0  0
 33 69  1  0  0  0  0
M  END
$$$$
Target_lig_1273
 OpenBabel04172506213D

 65 67  0  0  1  0  0  0  0  0999 V2000
    0.6100    1.5955   -0.2174 C   0  0  0  0  0  0  0  0  0  0  0  0
    1.6780    0.5254    0.0589 C   0  0  3  0  0  0  0  0  0  0  0  0
    1.0933   -0.8394   -0.3987 C   0  0  3  0  0  0  0  0  0  0  0  0
   -0.1618   -1.2147    0.4348 C   0  0  3  0  0  0  0  0  0  0  0  0
   -1.2548   -0.2065   -0.0122 C   0  0  3  0  0  0  0  0  0  0  0  0
   -0.8047    1.2600    0.3216 C   0  0  3  0  0  0  0  0  0  0  0  0
   -1.7285    2.2632   -0.2531 N   0  0  0  0  0  0  0  0  0  0  0  0
   -2.5289   -0.5420    0.5837 O   0  0  0  0  0  0  0  0  0  0  0  0
   -3.2829   -1.4794   -0.2008 C   0  0  3  0  0  0  0  0  0  0  0  0
   -4.7925   -1.4320    0.1765 C   0  0  3  0  0  0  0  0  0  0  0  0
   -4.9788   -2.0597    1.5712 C   0  0  3  0  0  0  0  0  0  0  0  0
   -4.4109   -3.4872    1.6105 C   0  0  3  0  0  0  0  0  0  0  0  0
   -2.9330   -3.4415    1.1726 C   0  0  3  0  0  0  0  0  0  0  0  0
   -2.7859   -2.8256   -0.1276 O   0  0  0  0  0  0  0  0  0  0  0  0
   -2.3569   -4.8771    1.1372 C   0  0  0  0  0  0  0  0  0  0  0  0
   -0.9204   -4.8949    0.8197 N   0  0  0  0  0  0  0  0  0  0  0  0
   -5.1611   -4.3873    0.7685 O   0  0  0  0  0  0  0  0  0  0  0  0
   -6.3630   -2.0619    1.9360 O   0  0  0  0  0  0  0  0  0  0  0  0
   -5.6667   -2.1524   -0.8121 N   0  0  0  0  0  0  0  0  0  0  0  0
    0.0128   -1.1244    1.8779 O   0  0  0  0  0  0  0  0  0  0  0  0
    0.6881   -2.2523    2.4412 C   0  0  3  0  0  0  0  0  0  0  0  0
    0.8220   -2.1614    3.9754 C   0  0  3  0  0  0  0  0  0  0  0  0
    2.3275   -2.1221    4.2179 C   0  0  3  0  0  0  0  0  0  0  0  0
    2.9189   -2.7061    2.9481 C   0  0  3  0  0  0  0  0  0  0  0  0
    1.9950   -2.3875    1.9009 O   0  0  0  0  0  0  0  0  0  0  0  0
    3.1023   -4.2215    2.8910 C   0  0  0  0  0  0  0  0  0  0  0  0
    3.6072   -4.5784    1.5955 O   0  0  0  0  0  0  0  0  0  0  0  0
    2.7138   -2.8129    5.4013 O   0  0  0  0  0  0  0  0  0  0  0  0
    0.3065   -3.3431    4.6271 O   0  0  0  0  0  0  0  0  0  0  0  0
    2.0676   -1.8721   -0.5382 O   0  0  0  0  0  0  0  0  0  0  0  0
    2.1135    0.5982    1.4635 N   0  0  0  0  0  0  0  0  0  0  0  0
    0.5683    1.7221   -1.3058 H   0  0  0  0  0  0  0  0  0  0  0  0
    0.9458    2.5648    0.1795 H   0  0  0  0  0  0  0  0  0  0  0  0
    2.5769    0.7304   -0.5360 H   0  0  0  0  0  0  0  0  0  0  0  0
    0.7611   -0.7089   -1.4352 H   0  0  0  0  0  0  0  0  0  0  0  0
   -0.4748   -2.2306    0.1945 H   0  0  0  0  0  0  0  0  0  0  0  0
   -1.3631   -0.2570   -1.1049 H   0  0  0  0  0  0  0  0  0  0  0  0
   -0.8308    1.3961    1.4094 H   0  0  0  0  0  0  0  0  0  0  0  0
   -1.6489    2.2701   -1.2703 H   0  0  0  0  0  0  0  0  0  0  0  0
   -1.4268    3.1948    0.0409 H   0  0  0  0  0  0  0  0  0  0  0  0
   -3.2171   -1.1801   -1.2540 H   0  0  0  0  0  0  0  0  0  0  0  0
   -5.1398   -0.3938    0.2174 H   0  0  0  0  0  0  0  0  0  0  0  0
   -4.4563   -1.4489    2.3198 H   0  0  0  0  0  0  0  0  0  0  0  0
   -4.5026   -3.8973    2.6231 H   0  0  0  0  0  0  0  0  0  0  0  0
   -2.3656   -2.8463    1.9010 H   0  0  0  0  0  0  0  0  0  0  0  0
   -2.8655   -5.4857    0.3801 H   0  0  0  0  0  0  0  0  0  0  0  0
   -2.4974   -5.3535    2.1123 H   0  0  0  0  0  0  0  0  0  0  0  0
   -0.8195   -4.6217   -0.1594 H   0  0  0  0  0  0  0  0  0  0  0  0
   -0.5821   -5.8570    0.8719 H   0  0  0  0  0  0  0  0  0  0  0  0
   -5.6579   -3.8375    0.1289 H   0  0  0  0  0  0  0  0  0  0  0  0
   -6.8480   -2.3542    1.1399 H   0  0  0  0  0  0  0  0  0  0  0  0
   -5.0577   -2.7212   -1.4152 H   0  0  0  0  0  0  0  0  0  0  0  0
   -6.0494   -1.4529   -1.4548 H   0  0  0  0  0  0  0  0  0  0  0  0
    0.1230   -3.1471    2.1939 H   0  0  0  0  0  0  0  0  0  0  0  0
    0.3125   -1.2962    4.4117 H   0  0  0  0  0  0  0  0  0  0  0  0
    2.6492   -1.0777    4.3095 H   0  0  0  0  0  0  0  0  0  0  0  0
    3.8746   -2.2260    2.7083 H   0  0  0  0  0  0  0  0  0  0  0  0
    2.1489   -4.7431    3.0097 H   0  0  0  0  0  0  0  0  0  0  0  0
    3.8059   -4.5804    3.6434 H   0  0  0  0  0  0  0  0  0  0  0  0
    3.3072   -3.8745    0.9843 H   0  0  0  0  0  0  0  0  0  0  0  0
    1.9854   -3.4451    5.5809 H   0  0  0  0  0  0  0  0  0  0  0  0
   -0.6439   -3.3841    4.4227 H   0  0  0  0  0  0  0  0  0  0  0  0
    1.6617   -2.6977   -0.2303 H   0  0  0  0  0  0  0  0  0  0  0  0
    1.3489    0.2760    2.0624 H   0  0  0  0  0  0  0  0  0  0  0  0
    2.3079    1.5658    1.7330 H   0  0  0  0  0  0  0  0  0  0  0  0
  1  2  1  0  0  0  0
  1  6  1  0  0  0  0
  1 32  1  0  0  0  0
  1 33  1  0  0  0  0
  2  3  1  0  0  0  0
  2 31  1  0  0  0  0
  2 34  1  0  0  0  0
  3  4  1  0  0  0  0
  3 30  1  0  0  0  0
  3 35  1  0  0  0  0
  4  5  1  0  0  0  0
  4 20  1  0  0  0  0
  4 36  1  0  0  0  0
  5  6  1  0  0  0  0
  5  8  1  0  0  0  0
  5 37  1  0  0  0  0
  6  7  1  0  0  0  0
  6 38  1  0  0  0  0
  7 39  1  0  0  0  0
  7 40  1  0  0  0  0
  8  9  1  0  0  0  0
  9 10  1  0  0  0  0
  9 14  1  0  0  0  0
  9 41  1  0  0  0  0
 10 11  1  0  0  0  0
 10 19  1  0  0  0  0
 10 42  1  0  0  0  0
 11 12  1  0  0  0  0
 11 18  1  0  0  0  0
 11 43  1  0  0  0  0
 12 13  1  0  0  0  0
 12 17  1  0  0  0  0
 12 44  1  0  0  0  0
 13 14  1  0  0  0  0
 13 15  1  0  0  0  0
 13 45  1  0  0  0  0
 15 16  1  0  0  0  0
 15 46  1  0  0  0  0
 15 47  1  0  0  0  0
 16 48  1  0  0  0  0
 16 49  1  0  0  0  0
 17 50  1  0  0  0  0
 18 51  1  0  0  0  0
 19 52  1  0  0  0  0
 19 53  1  0  0  0  0
 20 21  1  0  0  0  0
 21 22  1  0  0  0  0
 21 25  1  0  0  0  0
 21 54  1  0  0  0  0
 22 23  1  0  0  0  0
 22 29  1  0  0  0  0
 22 55  1  0  0  0  0
 23 24  1  0  0  0  0
 23 28  1  0  0  0  0
 23 56  1  0  0  0  0
 24 25  1  0  0  0  0
 24 26  1  0  0  0  0
 24 57  1  0  0  0  0
 26 27  1  0  0  0  0
 26 58  1  0  0  0  0
 26 59  1  0  0  0  0
 27 60  1  0  0  0  0
 28 61  1  0  0  0  0
 29 62  1  0  0  0  0
 30 63  1  0  0  0  0
 31 64  1  0  0  0  0
 31 65  1  0  0  0  0
M  END
$$$$
Target_lig_140
 OpenBabel04172506213D

 74 76  0  0  1  0  0  0  0  0999 V2000
    3.6294   -4.8818    2.1800 C   0  0  0  0  0  0  0  0  0  0  0  0
    4.2721   -3.5419    1.8209 C   0  0  3  0  0  0  0  0  0  0  0  0
    5.1650   -3.6106    0.5542 C   0  0  3  0  0  0  0  0  0  0  0  0
    6.3861   -4.5251    0.7272 C   0  0  3  0  0  0  0  0  0  0  0  0
    7.4620   -3.8545    1.5931 C   0  0  3  0  0  0  0  0  0  0  0  0
    7.8489   -2.4516    1.0731 C   0  0  3  0  0  0  0  0  0  0  0  0
    6.5404   -1.6048    0.8735 C   0  0  3  0  0  0  0  0  0  0  0  0
    5.5637   -2.3008    0.0757 O   0  0  0  0  0  0  0  0  0  0  0  0
    6.6939   -0.2335    0.4298 O   0  0  0  0  0  0  0  0  0  0  0  0
    7.5524    0.0578   -0.6912 C   0  0  3  0  0  0  0  0  0  0  0  0
    7.9576    1.5669   -0.6729 C   0  0  3  0  0  0  0  0  0  0  0  0
    6.9262    2.5152   -1.3015 C   0  0  0  0  0  0  0  0  0  0  0  0
    6.1926    2.0095   -2.5519 C   0  0  3  0  0  0  0  0  0  0  0  0
    5.7036    0.5366   -2.3686 C   0  0  3  0  0  0  0  0  0  0  0  0
    6.9395   -0.3527   -2.0530 C   0  0  3  0  0  0  0  0  0  0  0  0
    6.6326   -1.7555   -2.0835 O   0  0  0  0  0  0  0  0  0  0  0  0
    4.9662   -0.0218   -3.4846 O   0  0  0  0  0  0  0  0  0  0  0  0
    3.9579    0.8206   -4.0556 C   0  0  3  0  0  0  0  0  0  0  0  0
    2.7149    1.0566   -3.1425 C   0  0  3  0  0  0  0  0  0  0  0  0
    1.7087   -0.1287   -3.2233 C   0  0  3  0  0  0  0  0  0  0  0  0
    1.3802   -0.4301   -4.7164 C   0  0  3  0  0  0  0  0  0  0  0  0
    2.7206   -0.7614   -5.4015 C   0  0  0  0  0  0  0  0  0  0  0  0
    3.6034    0.3531   -5.3673 O   0  0  0  0  0  0  0  0  0  0  0  0
    0.3849   -1.5782   -4.8974 C   0  0  0  0  0  0  0  0  0  0  0  0
    0.8285    0.7460   -5.3487 O   0  0  0  0  0  0  0  0  0  0  0  0
    0.5366   -0.0407   -2.3082 N   0  0  0  0  0  0  0  0  0  0  0  0
   -0.3707    1.0805   -2.5222 C   0  0  0  0  0  0  0  0  0  0  0  0
    2.0914    2.2905   -3.5455 O   0  0  0  0  0  0  0  0  0  0  0  0
    6.9784    2.2047   -3.7812 N   0  0  0  0  0  0  0  0  0  0  0  0
    9.2728    1.7972   -1.3013 N   0  0  0  0  0  0  0  0  0  0  0  0
    8.7451   -2.5842   -0.1059 N   0  0  0  0  0  0  0  0  0  0  0  0
    8.6136   -4.7145    1.6512 O   0  0  0  0  0  0  0  0  0  0  0  0
    6.9546   -4.8758   -0.5478 O   0  0  0  0  0  0  0  0  0  0  0  0
    3.2219   -2.5901    1.6333 O   0  0  0  0  0  0  0  0  0  0  0  0
    4.3699   -5.6471    2.4281 H   0  0  0  0  0  0  0  0  0  0  0  0
    3.0053   -5.2528    1.3589 H   0  0  0  0  0  0  0  0  0  0  0  0
    2.9684   -4.7667    3.0459 H   0  0  0  0  0  0  0  0  0  0  0  0
    4.8497   -3.1915    2.6807 H   0  0  0  0  0  0  0  0  0  0  0  0
    4.5495   -4.0055   -0.2643 H   0  0  0  0  0  0  0  0  0  0  0  0
    6.1124   -5.4858    1.1716 H   0  0  0  0  0  0  0  0  0  0  0  0
    7.0972   -3.7571    2.6213 H   0  0  0  0  0  0  0  0  0  0  0  0
    8.4708   -1.9461    1.8194 H   0  0  0  0  0  0  0  0  0  0  0  0
    6.0898   -1.4861    1.8663 H   0  0  0  0  0  0  0  0  0  0  0  0
    8.4926   -0.4555   -0.5271 H   0  0  0  0  0  0  0  0  0  0  0  0
    8.0706    1.8804    0.3741 H   0  0  0  0  0  0  0  0  0  0  0  0
    7.3923    3.4888   -1.5179 H   0  0  0  0  0  0  0  0  0  0  0  0
    6.1670    2.7383   -0.5402 H   0  0  0  0  0  0  0  0  0  0  0  0
    5.3163    2.6577   -2.6610 H   0  0  0  0  0  0  0  0  0  0  0  0
    5.0252    0.4924   -1.5081 H   0  0  0  0  0  0  0  0  0  0  0  0
    7.6959   -0.2295   -2.8339 H   0  0  0  0  0  0  0  0  0  0  0  0
    5.8263   -1.8450   -1.5339 H   0  0  0  0  0  0  0  0  0  0  0  0
    4.3962    1.7931   -4.2809 H   0  0  0  0  0  0  0  0  0  0  0  0
    3.0223    1.1930   -2.1014 H   0  0  0  0  0  0  0  0  0  0  0  0
    2.2457   -1.0117   -2.8469 H   0  0  0  0  0  0  0  0  0  0  0  0
    2.5509   -0.9765   -6.4624 H   0  0  0  0  0  0  0  0  0  0  0  0
    3.2058   -1.6392   -4.9595 H   0  0  0  0  0  0  0  0  0  0  0  0
    0.6555   -2.4521   -4.2976 H   0  0  0  0  0  0  0  0  0  0  0  0
    0.3375   -1.8880   -5.9484 H   0  0  0  0  0  0  0  0  0  0  0  0
   -0.6320   -1.2670   -4.6321 H   0  0  0  0  0  0  0  0  0  0  0  0
    0.7396    0.5526   -6.2996 H   0  0  0  0  0  0  0  0  0  0  0  0
    0.8775    0.0259   -1.3497 H   0  0  0  0  0  0  0  0  0  0  0  0
   -0.7909    1.1058   -3.5295 H   0  0  0  0  0  0  0  0  0  0  0  0
    0.0913    2.0424   -2.2870 H   0  0  0  0  0  0  0  0  0  0  0  0
   -1.2193    0.9771   -1.8360 H   0  0  0  0  0  0  0  0  0  0  0  0
    1.5875    2.0721   -4.3618 H   0  0  0  0  0  0  0  0  0  0  0  0
    7.8272    1.6501   -3.7942 H   0  0  0  0  0  0  0  0  0  0  0  0
    7.2729    3.1790   -3.8613 H   0  0  0  0  0  0  0  0  0  0  0  0
    9.2966    1.4424   -2.2540 H   0  0  0  0  0  0  0  0  0  0  0  0
    9.9827    1.2622   -0.7941 H   0  0  0  0  0  0  0  0  0  0  0  0
    8.1959   -2.6957   -0.9602 H   0  0  0  0  0  0  0  0  0  0  0  0
    9.3242   -3.4162    0.0081 H   0  0  0  0  0  0  0  0  0  0  0  0
    8.6128   -5.2173    0.8101 H   0  0  0  0  0  0  0  0  0  0  0  0
    6.8385   -4.1176   -1.1536 H   0  0  0  0  0  0  0  0  0  0  0  0
    2.7662   -2.7949    0.7981 H   0  0  0  0  0  0  0  0  0  0  0  0
  1  2  1  0  0  0  0
  1 35  1  0  0  0  0
  1 36  1  0  0  0  0
  1 37  1  0  0  0  0
  2  3  1  0  0  0  0
  2 34  1  0  0  0  0
  2 38  1  0  0  0  0
  3  4  1  0  0  0  0
  3  8  1  0  0  0  0
  3 39  1  0  0  0  0
  4  5  1  0  0  0  0
  4 33  1  0  0  0  0
  4 40  1  0  0  0  0
  5  6  1  0  0  0  0
  5 32  1  0  0  0  0
  5 41  1  0  0  0  0
  6  7  1  0  0  0  0
  6 31  1  0  0  0  0
  6 42  1  0  0  0  0
  7  8  1  0  0  0  0
  7  9  1  0  0  0  0
  7 43  1  0  0  0  0
  9 10  1  0  0  0  0
 10 11  1  0  0  0  0
 10 15  1  0  0  0  0
 10 44  1  0  0  0  0
 11 12  1  0  0  0  0
 11 30  1  0  0  0  0
 11 45  1  0  0  0  0
 12 13  1  0  0  0  0
 12 46  1  0  0  0  0
 12 47  1  0  0  0  0
 13 14  1  0  0  0  0
 13 29  1  0  0  0  0
 13 48  1  0  0  0  0
 14 15  1  0  0  0  0
 14 17  1  0  0  0  0
 14 49  1  0  0  0  0
 15 16  1  0  0  0  0
 15 50  1  0  0  0  0
 16 51  1  0  0  0  0
 17 18  1  0  0  0  0
 18 19  1  0  0  0  0
 18 23  1  0  0  0  0
 18 52  1  0  0  0  0
 19 20  1  0  0  0  0
 19 28  1  0  0  0  0
 19 53  1  0  0  0  0
 20 21  1  0  0  0  0
 20 26  1  0  0  0  0
 20 54  1  0  0  0  0
 21 22  1  0  0  0  0
 21 24  1  0  0  0  0
 21 25  1  0  0  0  0
 22 23  1  0  0  0  0
 22 55  1  0  0  0  0
 22 56  1  0  0  0  0
 24 57  1  0  0  0  0
 24 58  1  0  0  0  0
 24 59  1  0  0  0  0
 25 60  1  0  0  0  0
 26 27  1  0  0  0  0
 26 61  1  0  0  0  0
 27 62  1  0  0  0  0
 27 63  1  0  0  0  0
 27 64  1  0  0  0  0
 28 65  1  0  0  0  0
 29 66  1  0  0  0  0
 29 67  1  0  0  0  0
 30 68  1  0  0  0  0
 30 69  1  0  0  0  0
 31 70  1  0  0  0  0
 31 71  1  0  0  0  0
 32 72  1  0  0  0  0
 33 73  1  0  0  0  0
 34 74  1  0  0  0  0
M  END
$$$$
Target_lig_63
 OpenBabel04172506213D

 79 81  0  0  1  0  0  0  0  0999 V2000
    0.9644    1.2991   -0.8781 C   0  0  0  0  0  0  0  0  0  0  0  0
    2.4011    0.7869   -0.8376 C   0  0  3  0  0  0  0  0  0  0  0  0
    2.5440   -0.6875   -0.4864 C   0  0  3  0  0  0  0  0  0  0  0  0
    3.7777   -0.7563    0.4396 C   0  0  3  0  0  0  0  0  0  0  0  0
    4.3473    0.7159    0.4426 C   0  0  3  0  0  0  0  0  0  0  0  0
    3.1805    1.5096    0.1293 O   0  0  0  0  0  0  0  0  0  0  0  0
    5.4845    1.0772   -0.3882 O   0  0  0  0  0  0  0  0  0  0  0  0
    5.9296    2.4779   -0.1428 C   0  0  3  0  0  0  0  0  0  0  0  0
    5.0905    3.4551   -0.9729 C   0  0  3  0  0  0  0  0  0  0  0  0
    5.3474    3.2523   -2.4798 C   0  0  3  0  0  0  0  0  0  0  0  0
    6.8229    3.3262   -2.9359 C   0  0  3  0  0  0  0  0  0  0  0  0
    7.8078    2.6601   -1.9497 C   0  0  3  0  0  0  0  0  0  0  0  0
    7.4300    2.7441   -0.4571 C   0  0  3  0  0  0  0  0  0  0  0  0
    8.2326    1.8499    0.3385 O   0  0  0  0  0  0  0  0  0  0  0  0
    9.1334    3.1799   -2.1705 O   0  0  0  0  0  0  0  0  0  0  0  0
    7.1966    4.7362   -3.2585 N   0  0  0  0  0  0  0  0  0  0  0  0
    6.9350    5.1430   -4.4592 C   0  0  0  0  0  0  0  0  0  0  0  0
    6.4444    4.4533   -5.5218 N   0  0  0  0  0  0  0  0  0  0  0  0
    7.1234    6.4389   -4.8018 N   0  0  0  0  0  0  0  0  0  0  0  0
    4.5469    4.2252   -3.1788 O   0  0  0  0  0  0  0  0  0  0  0  0
    5.2845    4.8880   -0.6593 N   0  0  0  0  0  0  0  0  0  0  0  0
    4.6475    5.4044    0.3256 C   0  0  0  0  0  0  0  0  0  0  0  0
    3.9200    4.8059    1.2896 N   0  0  0  0  0  0  0  0  0  0  0  0
    4.5604    6.7472    0.4018 N   0  0  0  0  0  0  0  0  0  0  0  0
    4.6239   -1.8929    0.2035 O   0  0  0  0  0  0  0  0  0  0  0  0
    3.9557   -3.1838    0.3334 C   0  0  3  0  0  0  0  0  0  0  0  0
    3.5754   -3.6310    1.7844 C   0  0  3  0  0  0  0  0  0  0  0  0
    4.9050   -3.8869    2.5318 C   0  0  3  0  0  0  0  0  0  0  0  0
    5.7526   -4.9422    1.7932 C   0  0  3  0  0  0  0  0  0  0  0  0
    5.9795   -4.4743    0.3484 C   0  0  3  0  0  0  0  0  0  0  0  0
    4.7359   -4.1919   -0.3218 O   0  0  0  0  0  0  0  0  0  0  0  0
    6.7148   -5.5122   -0.5028 C   0  0  0  0  0  0  0  0  0  0  0  0
    6.8256   -5.0230   -1.8435 O   0  0  0  0  0  0  0  0  0  0  0  0
    5.0889   -6.2181    1.8420 O   0  0  0  0  0  0  0  0  0  0  0  0
    4.6388   -4.3030    3.8790 O   0  0  0  0  0  0  0  0  0  0  0  0
    2.7461   -4.8815    1.8907 N   0  0  0  0  0  0  0  0  0  0  0  0
    1.4790   -4.8512    1.1717 C   0  0  0  0  0  0  0  0  0  0  0  0
    1.3168   -1.2350    0.2566 C   0  0  0  0  0  0  0  0  0  0  0  0
    1.1587   -1.2673    1.4715 O   0  0  0  0  0  0  0  0  0  0  0  0
    2.7106   -1.4258   -1.7035 O   0  0  0  0  0  0  0  0  0  0  0  0
    0.3189    0.6401   -1.4717 H   0  0  0  0  0  0  0  0  0  0  0  0
    0.9227    2.2948   -1.3287 H   0  0  0  0  0  0  0  0  0  0  0  0
    0.5460    1.3920    0.1298 H   0  0  0  0  0  0  0  0  0  0  0  0
    2.8405    0.9714   -1.8282 H   0  0  0  0  0  0  0  0  0  0  0  0
    3.4458   -0.8601    1.4782 H   0  0  0  0  0  0  0  0  0  0  0  0
    4.6261    0.9548    1.4748 H   0  0  0  0  0  0  0  0  0  0  0  0
    5.8226    2.6611    0.9332 H   0  0  0  0  0  0  0  0  0  0  0  0
    4.0259    3.2667   -0.8524 H   0  0  0  0  0  0  0  0  0  0  0  0
    4.9649    2.2684   -2.7659 H   0  0  0  0  0  0  0  0  0  0  0  0
    6.9360    2.7329   -3.8516 H   0  0  0  0  0  0  0  0  0  0  0  0
    7.8777    1.5971   -2.2061 H   0  0  0  0  0  0  0  0  0  0  0  0
    7.6988    3.7482   -0.1018 H   0  0  0  0  0  0  0  0  0  0  0  0
    8.1115    0.9553   -0.0225 H   0  0  0  0  0  0  0  0  0  0  0  0
    9.0007    4.0784   -2.5434 H   0  0  0  0  0  0  0  0  0  0  0  0
    5.9368    3.6071   -5.2910 H   0  0  0  0  0  0  0  0  0  0  0  0
    5.9520    4.9806   -6.2280 H   0  0  0  0  0  0  0  0  0  0  0  0
    7.2680    7.0164   -3.9833 H   0  0  0  0  0  0  0  0  0  0  0  0
    6.4075    6.8320   -5.3987 H   0  0  0  0  0  0  0  0  0  0  0  0
    4.8106    5.0617   -2.7256 H   0  0  0  0  0  0  0  0  0  0  0  0
    4.0712    3.8189    1.4440 H   0  0  0  0  0  0  0  0  0  0  0  0
    3.7619    5.3230    2.1420 H   0  0  0  0  0  0  0  0  0  0  0  0
    5.1418    7.2223   -0.2779 H   0  0  0  0  0  0  0  0  0  0  0  0
    4.5329    7.1906    1.3057 H   0  0  0  0  0  0  0  0  0  0  0  0
    3.0382   -3.1611   -0.2495 H   0  0  0  0  0  0  0  0  0  0  0  0
    3.0330   -2.8412    2.3116 H   0  0  0  0  0  0  0  0  0  0  0  0
    5.4679   -2.9491    2.5949 H   0  0  0  0  0  0  0  0  0  0  0  0
    6.7059   -5.0878    2.3102 H   0  0  0  0  0  0  0  0  0  0  0  0
    6.5678   -3.5482    0.3458 H   0  0  0  0  0  0  0  0  0  0  0  0
    6.1772   -6.4641   -0.5536 H   0  0  0  0  0  0  0  0  0  0  0  0
    7.7236   -5.6913   -0.1208 H   0  0  0  0  0  0  0  0  0  0  0  0
    5.9198   -4.7464   -2.0849 H   0  0  0  0  0  0  0  0  0  0  0  0
    4.1539   -6.0592    1.5697 H   0  0  0  0  0  0  0  0  0  0  0  0
    4.5801   -5.2783    3.8530 H   0  0  0  0  0  0  0  0  0  0  0  0
    2.5334   -5.0002    2.8887 H   0  0  0  0  0  0  0  0  0  0  0  0
    1.6190   -4.7696    0.0906 H   0  0  0  0  0  0  0  0  0  0  0  0
    0.8265   -4.0480    1.5233 H   0  0  0  0  0  0  0  0  0  0  0  0
    0.9557   -5.7994    1.3419 H   0  0  0  0  0  0  0  0  0  0  0  0
    0.4965   -1.5883   -0.3968 H   0  0  0  0  0  0  0  0  0  0  0  0
    3.6530   -1.6828   -1.7735 H   0  0  0  0  0  0  0  0  0  0  0  0
  1  2  1  0  0  0  0
  1 41  1  0  0  0  0
  1 42  1  0  0  0  0
  1 43  1  0  0  0  0
  2  3  1  0  0  0  0
  2  6  1  0  0  0  0
  2 44  1  0  0  0  0
  3  4  1  0  0  0  0
  3 38  1  0  0  0  0
  3 40  1  0  0  0  0
  4  5  1  0  0  0  0
  4 25  1  0  0  0  0
  4 45  1  0  0  0  0
  5  6  1  0  0  0  0
  5  7  1  0  0  0  0
  5 46  1  0  0  0  0
  7  8  1  0  0  0  0
  8  9  1  0  0  0  0
  8 13  1  0  0  0  0
  8 47  1  0  0  0  0
  9 10  1  0  0  0  0
  9 21  1  0  0  0  0
  9 48  1  0  0  0  0
 10 11  1  0  0  0  0
 10 20  1  0  0  0  0
 10 49  1  0  0  0  0
 11 12  1  0  0  0  0
 11 16  1  0  0  0  0
 11 50  1  0  0  0  0
 12 13  1  0  0  0  0
 12 15  1  0  0  0  0
 12 51  1  0  0  0  0
 13 14  1  0  0  0  0
 13 52  1  0  0  0  0
 14 53  1  0  0  0  0
 15 54  1  0  0  0  0
 16 17  2  0  0  0  0
 17 18  1  0  0  0  0
 17 19  1  0  0  0  0
 18 55  1  0  0  0  0
 18 56  1  0  0  0  0
 19 57  1  0  0  0  0
 19 58  1  0  0  0  0
 20 59  1  0  0  0  0
 21 22  2  0  0  0  0
 22 23  1  0  0  0  0
 22 24  1  0  0  0  0
 23 60  1  0  0  0  0
 23 61  1  0  0  0  0
 24 62  1  0  0  0  0
 24 63  1  0  0  0  0
 25 26  1  0  0  0  0
 26 27  1  0  0  0  0
 26 31  1  0  0  0  0
 26 64  1  0  0  0  0
 27 28  1  0  0  0  0
 27 36  1  0  0  0  0
 27 65  1  0  0  0  0
 28 29  1  0  0  0  0
 28 35  1  0  0  0  0
 28 66  1  0  0  0  0
 29 30  1  0  0  0  0
 29 34  1  0  0  0  0
 29 67  1  0  0  0  0
 30 31  1  0  0  0  0
 30 32  1  0  0  0  0
 30 68  1  0  0  0  0
 32 33  1  0  0  0  0
 32 69  1  0  0  0  0
 32 70  1  0  0  0  0
 33 71  1  0  0  0  0
 34 72  1  0  0  0  0
 35 73  1  0  0  0  0
 36 37  1  0  0  0  0
 36 74  1  0  0  0  0
 37 75  1  0  0  0  0
 37 76  1  0  0  0  0
 37 77  1  0  0  0  0
 38 39  2  0  0  0  0
 38 78  1  0  0  0  0
 40 79  1  0  0  0  0
M  END
$$$$
Target_lig_3
 OpenBabel04172506213D

 73 76  0  0  1  0  0  0  0  0999 V2000
   -3.8657   -2.8204   -1.0029 C   0  0  0  0  0  0  0  0  0  0  0  0
   -3.0748   -2.9701    0.2052 N   0  0  0  0  0  0  0  0  0  0  0  0
   -2.2836   -4.2148    0.2978 C   0  0  3  0  0  0  0  0  0  0  0  0
   -1.6278   -4.1488    1.6948 C   0  0  0  0  0  0  0  0  0  0  0  0
   -0.6356   -2.9735    1.7626 C   0  0  3  0  0  0  0  0  0  0  0  0
    0.4533   -3.1251    0.6796 C   0  0  3  0  0  0  0  0  0  0  0  0
   -0.1296   -3.2741   -0.7631 C   0  0  3  0  0  0  0  0  0  0  0  0
   -1.1617   -4.4355   -0.7822 C   0  0  3  0  0  0  0  0  0  0  0  0
   -1.7623   -4.6806   -2.0589 O   0  0  0  0  0  0  0  0  0  0  0  0
    1.0362   -3.3873   -1.5770 O   0  0  0  0  0  0  0  0  0  0  0  0
    0.9960   -3.6685   -2.9566 C   0  0  3  0  0  0  0  0  0  0  0  0
    2.4161   -3.9414   -3.3889 C   0  0  3  0  0  0  0  0  0  0  0  0
    3.3654   -2.8306   -3.6349 C   0  0  3  0  0  0  0  0  0  0  0  0
    2.7070   -1.7723   -4.5242 C   0  0  3  0  0  0  0  0  0  0  0  0
    1.3199   -1.4652   -3.8349 C   0  0  3  0  0  0  0  0  0  0  0  0
    0.4628   -2.6446   -3.7625 O   0  0  0  0  0  0  0  0  0  0  0  0
    0.4367   -0.4440   -4.5439 C   0  0  0  0  0  0  0  0  0  0  0  0
   -0.8337   -0.4152   -3.8634 O   0  0  0  0  0  0  0  0  0  0  0  0
    2.5503   -2.1886   -5.8754 O   0  0  0  0  0  0  0  0  0  0  0  0
    4.5521   -3.6696   -3.8871 O   0  0  0  0  0  0  0  0  0  0  0  0
    4.4701   -4.5810   -2.7370 C   0  0  3  0  0  0  0  0  0  0  0  0
    3.1173   -4.4564   -2.3069 O   0  0  0  0  0  0  0  0  0  0  0  0
    4.5406   -6.1386   -2.8338 C   0  0  3  0  0  0  0  0  0  0  0  0
    3.7233   -6.6163   -1.5619 C   0  0  3  0  0  0  0  0  0  0  0  0
    4.4404   -6.0729   -0.2755 C   0  0  3  0  0  0  0  0  0  0  0  0
    4.8662   -4.5559   -0.3838 C   0  0  3  0  0  0  0  0  0  0  0  0
    5.3935   -4.2208   -1.6965 O   0  0  0  0  0  0  0  0  0  0  0  0
    5.7184   -3.9764    0.8129 C   0  0  3  0  0  0  0  0  0  0  0  0
    6.5103   -4.9541    1.7093 C   0  0  0  0  0  0  0  0  0  0  0  0
    7.7321   -5.3662    1.1064 O   0  0  0  0  0  0  0  0  0  0  0  0
    6.5798   -2.8247    0.4429 N   0  0  0  0  0  0  0  0  0  0  0  0
    5.5731   -6.9275   -0.0473 O   0  0  0  0  0  0  0  0  0  0  0  0
    3.5102   -8.0231   -1.5860 O   0  0  0  0  0  0  0  0  0  0  0  0
    5.8851   -6.6685   -2.7225 O   0  0  0  0  0  0  0  0  0  0  0  0
    1.3190   -4.2401    1.0309 O   0  0  0  0  0  0  0  0  0  0  0  0
   -0.0435   -2.8799    3.1037 N   0  0  0  0  0  0  0  0  0  0  0  0
   -4.4717   -1.9122   -0.9090 H   0  0  0  0  0  0  0  0  0  0  0  0
   -4.5447   -3.6630   -1.1523 H   0  0  0  0  0  0  0  0  0  0  0  0
   -3.2340   -2.6782   -1.8827 H   0  0  0  0  0  0  0  0  0  0  0  0
   -3.7157   -2.9248    1.0014 H   0  0  0  0  0  0  0  0  0  0  0  0
   -2.9764   -5.0665    0.2683 H   0  0  0  0  0  0  0  0  0  0  0  0
   -1.1262   -5.1007    1.9144 H   0  0  0  0  0  0  0  0  0  0  0  0
   -2.3991   -4.0332    2.4696 H   0  0  0  0  0  0  0  0  0  0  0  0
   -1.1636   -2.0299    1.5867 H   0  0  0  0  0  0  0  0  0  0  0  0
    1.1122   -2.2481    0.6951 H   0  0  0  0  0  0  0  0  0  0  0  0
   -0.6271   -2.3487   -1.0659 H   0  0  0  0  0  0  0  0  0  0  0  0
   -0.6489   -5.3776   -0.5530 H   0  0  0  0  0  0  0  0  0  0  0  0
   -1.5180   -3.9628   -2.6638 H   0  0  0  0  0  0  0  0  0  0  0  0
    0.4357   -4.5900   -3.1248 H   0  0  0  0  0  0  0  0  0  0  0  0
    2.4027   -4.6270   -4.2570 H   0  0  0  0  0  0  0  0  0  0  0  0
    3.6191   -2.2873   -2.7096 H   0  0  0  0  0  0  0  0  0  0  0  0
    3.3211   -0.8627   -4.5391 H   0  0  0  0  0  0  0  0  0  0  0  0
    1.4851   -1.1193   -2.8021 H   0  0  0  0  0  0  0  0  0  0  0  0
    0.2287   -0.7356   -5.5766 H   0  0  0  0  0  0  0  0  0  0  0  0
    0.8680    0.5592   -4.5178 H   0  0  0  0  0  0  0  0  0  0  0  0
   -1.0805   -1.3788   -3.7572 H   0  0  0  0  0  0  0  0  0  0  0  0
    1.8001   -2.7984   -5.9425 H   0  0  0  0  0  0  0  0  0  0  0  0
    4.0926   -6.5481   -3.7413 H   0  0  0  0  0  0  0  0  0  0  0  0
    2.6965   -6.2375   -1.5290 H   0  0  0  0  0  0  0  0  0  0  0  0
    3.7785   -6.1739    0.5938 H   0  0  0  0  0  0  0  0  0  0  0  0
    3.9518   -3.9497   -0.3183 H   0  0  0  0  0  0  0  0  0  0  0  0
    4.9584   -3.5705    1.4941 H   0  0  0  0  0  0  0  0  0  0  0  0
    5.9233   -5.8254    2.0119 H   0  0  0  0  0  0  0  0  0  0  0  0
    6.7786   -4.4422    2.6410 H   0  0  0  0  0  0  0  0  0  0  0  0
    7.4861   -6.0420    0.4486 H   0  0  0  0  0  0  0  0  0  0  0  0
    7.5525   -3.1062    0.6170 H   0  0  0  0  0  0  0  0  0  0  0  0
    6.4187   -2.0653    1.1033 H   0  0  0  0  0  0  0  0  0  0  0  0
    5.9199   -7.1700   -0.9332 H   0  0  0  0  0  0  0  0  0  0  0  0
    4.1080   -8.4167   -0.9204 H   0  0  0  0  0  0  0  0  0  0  0  0
    6.4768   -5.8940   -2.6178 H   0  0  0  0  0  0  0  0  0  0  0  0
    0.8875   -5.0710    0.7809 H   0  0  0  0  0  0  0  0  0  0  0  0
    0.6162   -3.6483    3.2316 H   0  0  0  0  0  0  0  0  0  0  0  0
   -0.7621   -2.9632    3.8192 H   0  0  0  0  0  0  0  0  0  0  0  0
  1  2  1  0  0  0  0
  1 37  1  0  0  0  0
  1 38  1  0  0  0  0
  1 39  1  0  0  0  0
  2  3  1  0  0  0  0
  2 40  1  0  0  0  0
  3  4  1  0  0  0  0
  3  8  1  0  0  0  0
  3 41  1  0  0  0  0
  4  5  1  0  0  0  0
  4 42  1  0  0  0  0
  4 43  1  0  0  0  0
  5  6  1  0  0  0  0
  5 36  1  0  0  0  0
  5 44  1  0  0  0  0
  6  7  1  0  0  0  0
  6 35  1  0  0  0  0
  6 45  1  0  0  0  0
  7  8  1  0  0  0  0
  7 10  1  0  0  0  0
  7 46  1  0  0  0  0
  8  9  1  0  0  0  0
  8 47  1  0  0  0  0
  9 48  1  0  0  0  0
 10 11  1  0  0  0  0
 11 12  1  0  0  0  0
 11 16  1  0  0  0  0
 11 49  1  0  0  0  0
 12 13  1  0  0  0  0
 12 22  1  0  0  0  0
 12 50  1  0  0  0  0
 13 14  1  0  0  0  0
 13 20  1  0  0  0  0
 13 51  1  0  0  0  0
 14 15  1  0  0  0  0
 14 19  1  0  0  0  0
 14 52  1  0  0  0  0
 15 16  1  0  0  0  0
 15 17  1  0  0  0  0
 15 53  1  0  0  0  0
 17 18  1  0  0  0  0
 17 54  1  0  0  0  0
 17 55  1  0  0  0  0
 18 56  1  0  0  0  0
 19 57  1  0  0  0  0
 20 21  1  0  0  0  0
 21 22  1  0  0  0  0
 21 23  1  0  0  0  0
 21 27  1  0  0  0  0
 23 24  1  0  0  0  0
 23 34  1  0  0  0  0
 23 58  1  0  0  0  0
 24 25  1  0  0  0  0
 24 33  1  0  0  0  0
 24 59  1  0  0  0  0
 25 26  1  0  0  0  0
 25 32  1  0  0  0  0
 25 60  1  0  0  0  0
 26 27  1  0  0  0  0
 26 28  1  0  0  0  0
 26 61  1  0  0  0  0
 28 29  1  0  0  0  0
 28 31  1  0  0  0  0
 28 62  1  0  0  0  0
 29 30  1  0  0  0  0
 29 63  1  0  0  0  0
 29 64  1  0  0  0  0
 30 65  1  0  0  0  0
 31 66  1  0  0  0  0
 31 67  1  0  0  0  0
 32 68  1  0  0  0  0
 33 69  1  0  0  0  0
 34 70  1  0  0  0  0
 35 71  1  0  0  0  0
 36 72  1  0  0  0  0
 36 73  1  0  0  0  0
M  END
$$$$
Target_lig_965
 OpenBabel04172506213D

 78 82  0  0  0  0  0  0  0  0999 V2000
    6.2141    2.1990    4.4507 N   0  0  0  0  0  0  0  0  0  0  0  0
    6.2315    1.1050    5.0271 N   0  3  0  0  0  0  0  0  0  0  0  0
    6.2338    0.0134    5.6110 N   0  0  0  0  0  0  0  0  0  0  0  0
    6.6004   -1.1347    4.7773 C   0  0  0  0  0  0  0  0  0  0  0  0
    6.5659   -2.4030    5.6323 C   0  0  0  0  0  0  0  0  0  0  0  0
    6.8800   -3.6727    4.8353 C   0  0  0  0  0  0  0  0  0  0  0  0
    8.2447   -3.7290    4.3316 N   0  0  0  0  0  0  0  0  0  0  0  0
    9.2815   -4.2279    5.0977 C   0  0  0  0  0  0  0  0  0  0  0  0
    9.1317   -4.7158    6.2157 O   0  0  0  0  0  0  0  0  0  0  0  0
   10.6330   -4.1220    4.3967 C   0  0  0  0  0  0  0  0  0  0  0  0
   11.7579   -4.6855    5.2678 C   0  0  0  0  0  0  0  0  0  0  0  0
   13.1420   -4.6753    4.6134 C   0  0  0  0  0  0  0  0  0  0  0  0
   13.5748   -3.3327    4.3893 O   0  0  0  0  0  0  0  0  0  0  0  0
   14.9286   -3.1308    4.3330 C   0  0  0  0  0  0  0  0  0  0  0  0
   15.8995   -4.0905    4.0359 C   0  0  0  0  0  0  0  0  0  0  0  0
   17.2679   -3.7515    4.0397 C   0  0  0  0  0  0  0  0  0  0  0  0
   17.6828   -2.4492    4.3270 C   0  0  0  0  0  0  0  0  0  0  0  0
   16.6920   -1.4885    4.5929 C   0  0  0  0  0  0  0  0  0  0  0  0
   15.3359   -1.8248    4.5899 C   0  0  0  0  0  0  0  0  0  0  0  0
   19.1102   -2.0982    4.3405 C   0  0  0  0  0  0  0  0  0  0  0  0
   20.1562   -2.8499    4.0199 N   0  0  0  0  0  0  0  0  0  0  0  0
   21.2724   -2.0470    4.1880 C   0  0  0  0  0  0  0  0  0  0  0  0
   20.8994   -0.7956    4.6324 C   0  0  0  0  0  0  0  0  0  0  0  0
   19.5464   -0.8549    4.7225 N   0  0  0  0  0  0  0  0  0  0  0  0
   21.7846    0.2368    4.9222 C   0  0  0  0  0  0  0  0  0  0  0  0
   23.1626    0.0155    4.7597 C   0  0  0  0  0  0  0  0  0  0  0  0
   23.5677   -1.2483    4.2766 C   0  0  0  0  0  0  0  0  0  0  0  0
   22.6443   -2.2859    3.9954 C   0  0  0  0  0  0  0  0  0  0  0  0
   24.1112    1.0782    5.1789 C   0  0  0  0  0  0  0  0  0  0  0  0
   25.3763    0.7775    5.6925 C   0  0  0  0  0  0  0  0  0  0  0  0
   26.1965    1.7830    6.2287 C   0  0  0  0  0  0  0  0  0  0  0  0
   25.8042    3.1226    6.2773 C   0  0  0  0  0  0  0  0  0  0  0  0
   24.5662    3.4363    5.7231 C   0  0  0  0  0  0  0  0  0  0  0  0
   23.7446    2.4401    5.1759 C   0  0  0  0  0  0  0  0  0  0  0  0
   26.6637    4.0645    6.8133 N   0  0  0  0  0  0  0  0  0  0  0  0
   26.5655    5.4843    6.4463 C   0  0  0  0  0  0  0  0  0  0  0  0
   27.9514    6.1430    6.6512 C   0  0  0  0  0  0  0  0  0  0  0  0
   28.4576    5.9926    8.0373 N   0  0  0  0  0  0  0  0  0  0  0  0
   28.4841    4.5541    8.3965 C   0  0  0  0  0  0  0  0  0  0  0  0
   27.1133    3.8653    8.2049 C   0  0  0  0  0  0  0  0  0  0  0  0
   29.7939    6.5698    8.1575 C   0  0  0  0  0  0  0  0  0  0  0  0
    5.6895    2.8677    5.0170 H   0  0  0  0  0  0  0  0  0  0  0  0
    7.6051   -0.9910    4.3629 H   0  0  0  0  0  0  0  0  0  0  0  0
    5.8950   -1.2314    3.9430 H   0  0  0  0  0  0  0  0  0  0  0  0
    5.5630   -2.5069    6.0680 H   0  0  0  0  0  0  0  0  0  0  0  0
    7.2605   -2.3017    6.4752 H   0  0  0  0  0  0  0  0  0  0  0  0
    6.2088   -3.7630    3.9753 H   0  0  0  0  0  0  0  0  0  0  0  0
    6.7130   -4.5461    5.4771 H   0  0  0  0  0  0  0  0  0  0  0  0
    8.4370   -3.3954    3.3906 H   0  0  0  0  0  0  0  0  0  0  0  0
   10.8230   -3.0677    4.1640 H   0  0  0  0  0  0  0  0  0  0  0  0
   10.5757   -4.6792    3.4540 H   0  0  0  0  0  0  0  0  0  0  0  0
   11.5160   -5.7206    5.5389 H   0  0  0  0  0  0  0  0  0  0  0  0
   11.8004   -4.1094    6.2003 H   0  0  0  0  0  0  0  0  0  0  0  0
   13.1213   -5.2117    3.6585 H   0  0  0  0  0  0  0  0  0  0  0  0
   13.8252   -5.1884    5.3018 H   0  0  0  0  0  0  0  0  0  0  0  0
   15.6278   -5.1114    3.7852 H   0  0  0  0  0  0  0  0  0  0  0  0
   18.0121   -4.5157    3.8185 H   0  0  0  0  0  0  0  0  0  0  0  0
   16.9441   -0.4564    4.8114 H   0  0  0  0  0  0  0  0  0  0  0  0
   14.5968   -1.0567    4.8036 H   0  0  0  0  0  0  0  0  0  0  0  0
   18.9638   -0.0937    5.0290 H   0  0  0  0  0  0  0  0  0  0  0  0
   21.3990    1.1734    5.3089 H   0  0  0  0  0  0  0  0  0  0  0  0
   24.6239   -1.4598    4.1176 H   0  0  0  0  0  0  0  0  0  0  0  0
   22.9900   -3.2536    3.6479 H   0  0  0  0  0  0  0  0  0  0  0  0
   25.7416   -0.2453    5.7219 H   0  0  0  0  0  0  0  0  0  0  0  0
   27.1801    1.4946    6.5966 H   0  0  0  0  0  0  0  0  0  0  0  0
   24.1935    4.4566    5.7349 H   0  0  0  0  0  0  0  0  0  0  0  0
   22.7901    2.7581    4.7631 H   0  0  0  0  0  0  0  0  0  0  0  0
   25.8090    5.9910    7.0598 H   0  0  0  0  0  0  0  0  0  0  0  0
   26.2865    5.6024    5.3925 H   0  0  0  0  0  0  0  0  0  0  0  0
   27.8725    7.2067    6.3995 H   0  0  0  0  0  0  0  0  0  0  0  0
   28.6581    5.6876    5.9429 H   0  0  0  0  0  0  0  0  0  0  0  0
   28.7852    4.4422    9.4446 H   0  0  0  0  0  0  0  0  0  0  0  0
   29.2252    4.0246    7.7816 H   0  0  0  0  0  0  0  0  0  0  0  0
   26.3772    4.2956    8.8975 H   0  0  0  0  0  0  0  0  0  0  0  0
   27.2187    2.8066    8.4662 H   0  0  0  0  0  0  0  0  0  0  0  0
   29.7712    7.6383    7.9179 H   0  0  0  0  0  0  0  0  0  0  0  0
   30.5196    6.0830    7.4958 H   0  0  0  0  0  0  0  0  0  0  0  0
   30.1553    6.4836    9.1880 H   0  0  0  0  0  0  0  0  0  0  0  0
  1  2  2  0  0  0  0
  1 42  1  0  0  0  0
  2  3  2  0  0  0  0
  3  4  1  0  0  0  0
  4  5  1  0  0  0  0
  4 43  1  0  0  0  0
  4 44  1  0  0  0  0
  5  6  1  0  0  0  0
  5 45  1  0  0  0  0
  5 46  1  0  0  0  0
  6  7  1  0  0  0  0
  6 47  1  0  0  0  0
  6 48  1  0  0  0  0
  7  8  1  0  0  0  0
  7 49  1  0  0  0  0
  8  9  2  0  0  0  0
  8 10  1  0  0  0  0
 10 11  1  0  0  0  0
 10 50  1  0  0  0  0
 10 51  1  0  0  0  0
 11 12  1  0  0  0  0
 11 52  1  0  0  0  0
 11 53  1  0  0  0  0
 12 13  1  0  0  0  0
 12 54  1  0  0  0  0
 12 55  1  0  0  0  0
 13 14  1  0  0  0  0
 14 15  1  0  0  0  0
 14 19  2  0  0  0  0
 15 16  2  0  0  0  0
 15 56  1  0  0  0  0
 16 17  1  0  0  0  0
 16 57  1  0  0  0  0
 17 18  2  0  0  0  0
 17 20  1  0  0  0  0
 18 19  1  0  0  0  0
 18 58  1  0  0  0  0
 19 59  1  0  0  0  0
 20 21  2  0  0  0  0
 20 24  1  0  0  0  0
 21 22  1  0  0  0  0
 22 23  1  0  0  0  0
 22 28  2  0  0  0  0
 23 24  1  0  0  0  0
 23 25  2  0  0  0  0
 24 60  1  0  0  0  0
 25 26  1  0  0  0  0
 25 61  1  0  0  0  0
 26 27  2  0  0  0  0
 26 29  1  0  0  0  0
 27 28  1  0  0  0  0
 27 62  1  0  0  0  0
 28 63  1  0  0  0  0
 29 30  1  0  0  0  0
 29 34  2  0  0  0  0
 30 31  2  0  0  0  0
 30 64  1  0  0  0  0
 31 32  1  0  0  0  0
 31 65  1  0  0  0  0
 32 33  2  0  0  0  0
 32 35  1  0  0  0  0
 33 34  1  0  0  0  0
 33 66  1  0  0  0  0
 34 67  1  0  0  0  0
 35 36  1  0  0  0  0
 35 40  1  0  0  0  0
 36 37  1  0  0  0  0
 36 68  1  0  0  0  0
 36 69  1  0  0  0  0
 37 38  1  0  0  0  0
 37 70  1  0  0  0  0
 37 71  1  0  0  0  0
 38 39  1  0  0  0  0
 38 41  1  0  0  0  0
 39 40  1  0  0  0  0
 39 72  1  0  0  0  0
 39 73  1  0  0  0  0
 40 74  1  0  0  0  0
 40 75  1  0  0  0  0
 41 76  1  0  0  0  0
 41 77  1  0  0  0  0
 41 78  1  0  0  0  0
M  CHG  1   2   1
M  END
$$$$
Target_lig_966
 OpenBabel04172506213D

 89 96  0  0  0  0  0  0  0  0999 V2000
   -5.8011   10.5949    8.5726 C   0  0  0  0  0  0  0  0  0  0  0  0
   -5.3425    9.2784    8.1432 N   0  0  0  0  0  0  0  0  0  0  0  0
   -6.1305    8.2097    8.7976 C   0  0  0  0  0  0  0  0  0  0  0  0
   -5.7274    6.7867    8.3424 C   0  0  0  0  0  0  0  0  0  0  0  0
   -5.8220    6.7120    6.8801 N   0  0  0  0  0  0  0  0  0  0  0  0
   -5.0306    7.7454    6.1911 C   0  0  0  0  0  0  0  0  0  0  0  0
   -5.4640    9.1425    6.6758 C   0  0  0  0  0  0  0  0  0  0  0  0
   -6.2002    5.5651    6.2174 C   0  0  0  0  0  0  0  0  0  0  0  0
   -6.7284    5.6481    4.9256 C   0  0  0  0  0  0  0  0  0  0  0  0
   -7.2159    4.5300    4.2521 C   0  0  0  0  0  0  0  0  0  0  0  0
   -7.2316    3.2685    4.8632 C   0  0  0  0  0  0  0  0  0  0  0  0
   -6.6663    3.1661    6.1400 C   0  0  0  0  0  0  0  0  0  0  0  0
   -6.1623    4.2958    6.8001 C   0  0  0  0  0  0  0  0  0  0  0  0
   -7.9544    2.1397    4.2472 C   0  0  0  0  0  0  0  0  0  0  0  0
   -7.5206    0.8031    4.3469 C   0  0  0  0  0  0  0  0  0  0  0  0
   -8.2977   -0.2755    3.8713 C   0  0  0  0  0  0  0  0  0  0  0  0
   -9.5416    0.0029    3.2870 C   0  0  0  0  0  0  0  0  0  0  0  0
   -9.9300    1.3244    3.1639 C   0  0  0  0  0  0  0  0  0  0  0  0
   -9.1790    2.4030    3.6103 C   0  0  0  0  0  0  0  0  0  0  0  0
  -11.1489    1.2794    2.5604 N   0  0  0  0  0  0  0  0  0  0  0  0
  -11.5037   -0.0361    2.3763 C   0  0  0  0  0  0  0  0  0  0  0  0
  -10.5223   -0.8288    2.7865 N   0  0  0  0  0  0  0  0  0  0  0  0
  -12.7767   -0.3746    1.7293 C   0  0  0  0  0  0  0  0  0  0  0  0
  -12.9284   -1.5498    0.9891 C   0  0  0  0  0  0  0  0  0  0  0  0
  -14.0984   -1.7794    0.2537 C   0  0  0  0  0  0  0  0  0  0  0  0
  -15.1349   -0.8381    0.2496 C   0  0  0  0  0  0  0  0  0  0  0  0
  -15.0049    0.3111    1.0185 C   0  0  0  0  0  0  0  0  0  0  0  0
  -13.8514    0.5319    1.7676 C   0  0  0  0  0  0  0  0  0  0  0  0
  -16.2760   -0.9012   -0.5014 O   0  0  0  0  0  0  0  0  0  0  0  0
  -16.7298   -2.2065   -0.8571 C   0  0  0  0  0  0  0  0  0  0  0  0
  -18.0215   -2.0795   -1.6574 C   0  0  0  0  0  0  0  0  0  0  0  0
  -17.8064   -1.3858   -3.0096 C   0  0  0  0  0  0  0  0  0  0  0  0
  -19.0897   -1.4095   -3.8267 C   0  0  0  0  0  0  0  0  0  0  0  0
  -20.1866   -1.5060   -3.2716 O   0  0  0  0  0  0  0  0  0  0  0  0
  -18.9840   -1.3209   -5.2137 N   0  0  0  0  0  0  0  0  0  0  0  0
  -17.6977   -1.3361   -5.9290 C   0  0  0  0  0  0  0  0  0  0  0  0
  -17.7946   -0.9039   -7.4060 C   0  0  0  0  0  0  0  0  0  0  0  0
  -18.9037   -1.5886   -8.0763 N   0  0  0  0  0  0  0  0  0  0  0  0
  -20.2032   -1.4514   -7.4313 C   0  0  0  0  0  0  0  0  0  0  0  0
  -20.1240   -1.8684   -5.9564 C   0  0  0  0  0  0  0  0  0  0  0  0
  -18.7067   -2.0965   -9.3476 C   0  0  0  0  0  0  0  0  0  0  0  0
  -17.4745   -2.6035   -9.6437 N   0  0  0  0  0  0  0  0  0  0  0  0
  -17.1589   -3.2194  -10.8338 N   0  0  0  0  0  0  0  0  0  0  0  0
  -18.0780   -3.3525  -11.7949 C   0  0  0  0  0  0  0  0  0  0  0  0
  -19.3415   -2.8200  -11.5850 C   0  0  0  0  0  0  0  0  0  0  0  0
  -19.6818   -2.1750  -10.3901 C   0  0  0  0  0  0  0  0  0  0  0  0
  -21.0293   -1.6562  -10.4961 C   0  0  0  0  0  0  0  0  0  0  0  0
  -21.6640   -1.9765  -11.6726 C   0  0  0  0  0  0  0  0  0  0  0  0
  -20.6520   -2.8643  -12.7071 S   0  0  0  0  0  0  0  0  0  0  0  0
   -5.6780   10.7077    9.6551 H   0  0  0  0  0  0  0  0  0  0  0  0
   -6.8531   10.7742    8.3235 H   0  0  0  0  0  0  0  0  0  0  0  0
   -5.1977   11.3802    8.1038 H   0  0  0  0  0  0  0  0  0  0  0  0
   -7.2001    8.3510    8.5861 H   0  0  0  0  0  0  0  0  0  0  0  0
   -6.0030    8.2724    9.8846 H   0  0  0  0  0  0  0  0  0  0  0  0
   -6.4067    6.0797    8.8324 H   0  0  0  0  0  0  0  0  0  0  0  0
   -4.7045    6.5573    8.6660 H   0  0  0  0  0  0  0  0  0  0  0  0
   -5.1307    7.7121    5.1016 H   0  0  0  0  0  0  0  0  0  0  0  0
   -3.9661    7.5867    6.4074 H   0  0  0  0  0  0  0  0  0  0  0  0
   -6.5012    9.3212    6.3595 H   0  0  0  0  0  0  0  0  0  0  0  0
   -4.8347    9.8915    6.1811 H   0  0  0  0  0  0  0  0  0  0  0  0
   -6.8316    6.6221    4.4550 H   0  0  0  0  0  0  0  0  0  0  0  0
   -7.6421    4.6789    3.2632 H   0  0  0  0  0  0  0  0  0  0  0  0
   -6.6629    2.2187    6.6723 H   0  0  0  0  0  0  0  0  0  0  0  0
   -5.7497    4.1703    7.7971 H   0  0  0  0  0  0  0  0  0  0  0  0
   -6.5661    0.5761    4.8187 H   0  0  0  0  0  0  0  0  0  0  0  0
   -7.9602   -1.3002    3.9813 H   0  0  0  0  0  0  0  0  0  0  0  0
   -9.5740    3.4093    3.5180 H   0  0  0  0  0  0  0  0  0  0  0  0
  -11.6981    2.0824    2.2853 H   0  0  0  0  0  0  0  0  0  0  0  0
  -12.1268   -2.2837    0.9390 H   0  0  0  0  0  0  0  0  0  0  0  0
  -14.1560   -2.6850   -0.3420 H   0  0  0  0  0  0  0  0  0  0  0  0
  -15.8080    1.0459    1.0324 H   0  0  0  0  0  0  0  0  0  0  0  0
  -13.8125    1.4351    2.3693 H   0  0  0  0  0  0  0  0  0  0  0  0
  -16.9276   -2.7824    0.0556 H   0  0  0  0  0  0  0  0  0  0  0  0
  -15.9863   -2.7310   -1.4669 H   0  0  0  0  0  0  0  0  0  0  0  0
  -18.7640   -1.5210   -1.0747 H   0  0  0  0  0  0  0  0  0  0  0  0
  -18.4282   -3.0842   -1.8277 H   0  0  0  0  0  0  0  0  0  0  0  0
  -17.0126   -1.9186   -3.5406 H   0  0  0  0  0  0  0  0  0  0  0  0
  -17.5030   -0.3426   -2.8728 H   0  0  0  0  0  0  0  0  0  0  0  0
  -17.3120   -2.3607   -5.8693 H   0  0  0  0  0  0  0  0  0  0  0  0
  -16.9915   -0.6773   -5.4123 H   0  0  0  0  0  0  0  0  0  0  0  0
  -16.8226   -1.0775   -7.8819 H   0  0  0  0  0  0  0  0  0  0  0  0
  -17.9779    0.1771   -7.4562 H   0  0  0  0  0  0  0  0  0  0  0  0
  -20.9594   -2.0971   -7.8872 H   0  0  0  0  0  0  0  0  0  0  0  0
  -20.5394   -0.4111   -7.5104 H   0  0  0  0  0  0  0  0  0  0  0  0
  -20.0254   -2.9607   -5.8980 H   0  0  0  0  0  0  0  0  0  0  0  0
  -21.0656   -1.6056   -5.4617 H   0  0  0  0  0  0  0  0  0  0  0  0
  -17.7818   -3.8595  -12.7032 H   0  0  0  0  0  0  0  0  0  0  0  0
  -21.5156   -1.0624   -9.7346 H   0  0  0  0  0  0  0  0  0  0  0  0
  -22.6710   -1.7183  -11.9720 H   0  0  0  0  0  0  0  0  0  0  0  0
  1  2  1  0  0  0  0
  1 50  1  0  0  0  0
  1 51  1  0  0  0  0
  1 52  1  0  0  0  0
  2  3  1  0  0  0  0
  2  7  1  0  0  0  0
  3  4  1  0  0  0  0
  3 53  1  0  0  0  0
  3 54  1  0  0  0  0
  4  5  1  0  0  0  0
  4 55  1  0  0  0  0
  4 56  1  0  0  0  0
  5  6  1  0  0  0  0
  5  8  1  0  0  0  0
  6  7  1  0  0  0  0
  6 57  1  0  0  0  0
  6 58  1  0  0  0  0
  7 59  1  0  0  0  0
  7 60  1  0  0  0  0
  8  9  1  0  0  0  0
  8 13  2  0  0  0  0
  9 10  2  0  0  0  0
  9 61  1  0  0  0  0
 10 11  1  0  0  0  0
 10 62  1  0  0  0  0
 11 12  2  0  0  0  0
 11 14  1  0  0  0  0
 12 13  1  0  0  0  0
 12 63  1  0  0  0  0
 13 64  1  0  0  0  0
 14 15  1  0  0  0  0
 14 19  2  0  0  0  0
 15 16  2  0  0  0  0
 15 65  1  0  0  0  0
 16 17  1  0  0  0  0
 16 66  1  0  0  0  0
 17 18  2  0  0  0  0
 17 22  1  0  0  0  0
 18 19  1  0  0  0  0
 18 20  1  0  0  0  0
 19 67  1  0  0  0  0
 20 21  1  0  0  0  0
 20 68  1  0  0  0  0
 21 22  2  0  0  0  0
 21 23  1  0  0  0  0
 23 24  1  0  0  0  0
 23 28  2  0  0  0  0
 24 25  2  0  0  0  0
 24 69  1  0  0  0  0
 25 26  1  0  0  0  0
 25 70  1  0  0  0  0
 26 27  2  0  0  0  0
 26 29  1  0  0  0  0
 27 28  1  0  0  0  0
 27 71  1  0  0  0  0
 28 72  1  0  0  0  0
 29 30  1  0  0  0  0
 30 31  1  0  0  0  0
 30 73  1  0  0  0  0
 30 74  1  0  0  0  0
 31 32  1  0  0  0  0
 31 75  1  0  0  0  0
 31 76  1  0  0  0  0
 32 33  1  0  0  0  0
 32 77  1  0  0  0  0
 32 78  1  0  0  0  0
 33 34  2  0  0  0  0
 33 35  1  0  0  0  0
 35 36  1  0  0  0  0
 35 40  1  0  0  0  0
 36 37  1  0  0  0  0
 36 79  1  0  0  0  0
 36 80  1  0  0  0  0
 37 38  1  0  0  0  0
 37 81  1  0  0  0  0
 37 82  1  0  0  0  0
 38 39  1  0  0  0  0
 38 41  1  0  0  0  0
 39 40  1  0  0  0  0
 39 83  1  0  0  0  0
 39 84  1  0  0  0  0
 40 85  1  0  0  0  0
 40 86  1  0  0  0  0
 41 42  1  0  0  0  0
 41 46  2  0  0  0  0
 42 43  2  0  0  0  0
 43 44  1  0  0  0  0
 44 45  2  0  0  0  0
 44 87  1  0  0  0  0
 45 46  1  0  0  0  0
 45 49  1  0  0  0  0
 46 47  1  0  0  0  0
 47 48  2  0  0  0  0
 47 88  1  0  0  0  0
 48 49  1  0  0  0  0
 48 89  1  0  0  0  0
M  END
$$$$
Target_lig_967
 OpenBabel04172506213D

101107  0  0  0  0  0  0  0  0999 V2000
   -6.4284   10.8926    8.8709 C   0  0  0  0  0  0  0  0  0  0  0  0
   -5.9368    9.5650    8.5171 N   0  0  0  0  0  0  0  0  0  0  0  0
   -6.7596    8.5119    9.1569 C   0  0  0  0  0  0  0  0  0  0  0  0
   -6.3112    7.0743    8.7835 C   0  0  0  0  0  0  0  0  0  0  0  0
   -6.3004    6.9461    7.3228 N   0  0  0  0  0  0  0  0  0  0  0  0
   -5.4891    7.9690    6.6442 C   0  0  0  0  0  0  0  0  0  0  0  0
   -5.9739    9.3747    7.0501 C   0  0  0  0  0  0  0  0  0  0  0  0
   -6.6344    5.7775    6.6621 C   0  0  0  0  0  0  0  0  0  0  0  0
   -7.0971    5.8277    5.3393 C   0  0  0  0  0  0  0  0  0  0  0  0
   -7.5063    4.6801    4.6543 C   0  0  0  0  0  0  0  0  0  0  0  0
   -7.5163    3.4159    5.2625 C   0  0  0  0  0  0  0  0  0  0  0  0
   -7.0281    3.3501    6.5733 C   0  0  0  0  0  0  0  0  0  0  0  0
   -6.6012    4.5070    7.2580 C   0  0  0  0  0  0  0  0  0  0  0  0
   -8.1493    2.2563    4.5866 C   0  0  0  0  0  0  0  0  0  0  0  0
   -7.6935    0.9279    4.7120 C   0  0  0  0  0  0  0  0  0  0  0  0
   -8.3934   -0.1716    4.1464 C   0  0  0  0  0  0  0  0  0  0  0  0
   -9.5877    0.0685    3.4409 C   0  0  0  0  0  0  0  0  0  0  0  0
   -9.9828    1.3853    3.2935 C   0  0  0  0  0  0  0  0  0  0  0  0
   -9.3116    2.4796    3.8279 C   0  0  0  0  0  0  0  0  0  0  0  0
  -11.1241    1.3217    2.5592 N   0  0  0  0  0  0  0  0  0  0  0  0
  -11.4841    0.0059    2.3917 C   0  0  0  0  0  0  0  0  0  0  0  0
  -10.5171   -0.7798    2.8467 N   0  0  0  0  0  0  0  0  0  0  0  0
  -12.7722   -0.3163    1.7611 C   0  0  0  0  0  0  0  0  0  0  0  0
  -12.9738   -1.4740    1.0062 C   0  0  0  0  0  0  0  0  0  0  0  0
  -14.1908   -1.6800    0.3252 C   0  0  0  0  0  0  0  0  0  0  0  0
  -15.2195   -0.7364    0.4099 C   0  0  0  0  0  0  0  0  0  0  0  0
  -15.0269    0.4087    1.1720 C   0  0  0  0  0  0  0  0  0  0  0  0
  -13.8327    0.6047    1.8577 C   0  0  0  0  0  0  0  0  0  0  0  0
  -16.4405   -0.7914   -0.2044 O   0  0  0  0  0  0  0  0  0  0  0  0
  -16.9344   -2.0918   -0.5059 C   0  0  0  0  0  0  0  0  0  0  0  0
  -18.4692   -2.0601   -0.5835 C   0  0  0  0  0  0  0  0  0  0  0  0
  -19.1525   -1.0917   -1.5717 C   0  0  0  0  0  0  0  0  0  0  0  0
  -18.7590   -1.3148   -3.0246 C   0  0  0  0  0  0  0  0  0  0  0  0
  -17.6315   -1.7489   -3.2666 O   0  0  0  0  0  0  0  0  0  0  0  0
  -19.6442   -0.9935   -4.0538 N   0  0  0  0  0  0  0  0  0  0  0  0
  -20.9966   -0.4370   -3.8690 C   0  0  0  0  0  0  0  0  0  0  0  0
  -21.1442    1.0705   -3.8155 C   0  0  0  0  0  0  0  0  0  0  0  0
  -20.1014    1.9826   -3.9865 C   0  0  0  0  0  0  0  0  0  0  0  0
  -20.3615    3.3390   -3.8243 C   0  0  0  0  0  0  0  0  0  0  0  0
  -21.5746    3.8494   -3.5201 N   0  0  0  0  0  0  0  0  0  0  0  0
  -22.5823    2.9656   -3.4012 C   0  0  0  0  0  0  0  0  0  0  0  0
  -22.4224    1.5958   -3.5540 C   0  0  0  0  0  0  0  0  0  0  0  0
  -19.2059   -1.1470   -5.4624 C   0  0  0  0  0  0  0  0  0  0  0  0
  -18.2981   -2.3529   -5.7947 C   0  0  0  0  0  0  0  0  0  0  0  0
  -17.9911   -2.4921   -7.2068 N   0  0  0  0  0  0  0  0  0  0  0  0
  -18.9338   -2.8975   -8.1175 C   0  0  0  0  0  0  0  0  0  0  0  0
  -20.1189   -3.0322   -7.8442 O   0  0  0  0  0  0  0  0  0  0  0  0
  -18.4494   -3.1671   -9.4965 C   0  0  0  0  0  0  0  0  0  0  0  0
  -17.1538   -3.6338   -9.7603 C   0  0  0  0  0  0  0  0  0  0  0  0
  -16.7714   -3.9178  -11.0728 C   0  0  0  0  0  0  0  0  0  0  0  0
  -17.6854   -3.7579  -12.1105 C   0  0  0  0  0  0  0  0  0  0  0  0
  -18.9883   -3.3190  -11.8665 C   0  0  0  0  0  0  0  0  0  0  0  0
  -19.3588   -3.0075  -10.5512 C   0  0  0  0  0  0  0  0  0  0  0  0
  -19.9984   -3.2049  -12.9654 C   0  0  0  0  0  0  0  0  0  0  0  0
  -17.3008   -4.0656  -13.3575 F   0  0  0  0  0  0  0  0  0  0  0  0
   -6.3736   11.0434    9.9543 H   0  0  0  0  0  0  0  0  0  0  0  0
   -7.4636   11.0564    8.5506 H   0  0  0  0  0  0  0  0  0  0  0  0
   -5.8003   11.6650    8.4134 H   0  0  0  0  0  0  0  0  0  0  0  0
   -7.8130    8.6323    8.8649 H   0  0  0  0  0  0  0  0  0  0  0  0
   -6.7114    8.6165   10.2470 H   0  0  0  0  0  0  0  0  0  0  0  0
   -7.0153    6.3730    9.2460 H   0  0  0  0  0  0  0  0  0  0  0  0
   -5.3118    6.8709    9.1868 H   0  0  0  0  0  0  0  0  0  0  0  0
   -5.5271    7.8947    5.5526 H   0  0  0  0  0  0  0  0  0  0  0  0
   -4.4364    7.8391    6.9264 H   0  0  0  0  0  0  0  0  0  0  0  0
   -6.9948    9.5226    6.6703 H   0  0  0  0  0  0  0  0  0  0  0  0
   -5.3312   10.1174    6.5634 H   0  0  0  0  0  0  0  0  0  0  0  0
   -7.2170    6.7781    4.8207 H   0  0  0  0  0  0  0  0  0  0  0  0
   -7.8699    4.8069    3.6355 H   0  0  0  0  0  0  0  0  0  0  0  0
   -7.0177    2.4022    7.1090 H   0  0  0  0  0  0  0  0  0  0  0  0
   -6.2479    4.3716    8.2796 H   0  0  0  0  0  0  0  0  0  0  0  0
   -6.7784    0.7177    5.2672 H   0  0  0  0  0  0  0  0  0  0  0  0
   -8.0325   -1.1868    4.2787 H   0  0  0  0  0  0  0  0  0  0  0  0
   -9.7346    3.4690    3.6919 H   0  0  0  0  0  0  0  0  0  0  0  0
  -11.6692    2.1115    2.2398 H   0  0  0  0  0  0  0  0  0  0  0  0
  -12.1761   -2.2096    0.9179 H   0  0  0  0  0  0  0  0  0  0  0  0
  -14.2972   -2.5723   -0.2849 H   0  0  0  0  0  0  0  0  0  0  0  0
  -15.8182    1.1504    1.2389 H   0  0  0  0  0  0  0  0  0  0  0  0
  -13.7479    1.4979    2.4698 H   0  0  0  0  0  0  0  0  0  0  0  0
  -16.6697   -2.7967    0.2935 H   0  0  0  0  0  0  0  0  0  0  0  0
  -16.4770   -2.4593   -1.4281 H   0  0  0  0  0  0  0  0  0  0  0  0
  -18.8382   -1.7922    0.4159 H   0  0  0  0  0  0  0  0  0  0  0  0
  -18.8189   -3.0792   -0.7868 H   0  0  0  0  0  0  0  0  0  0  0  0
  -18.9242   -0.0524   -1.3143 H   0  0  0  0  0  0  0  0  0  0  0  0
  -20.2253   -1.2416   -1.4381 H   0  0  0  0  0  0  0  0  0  0  0  0
  -21.4192   -0.8375   -2.9450 H   0  0  0  0  0  0  0  0  0  0  0  0
  -21.6368   -0.8221   -4.6732 H   0  0  0  0  0  0  0  0  0  0  0  0
  -19.0948    1.6714   -4.2363 H   0  0  0  0  0  0  0  0  0  0  0  0
  -19.5726    4.0800   -3.9319 H   0  0  0  0  0  0  0  0  0  0  0  0
  -23.5518    3.3961   -3.1637 H   0  0  0  0  0  0  0  0  0  0  0  0
  -23.2901    0.9493   -3.4575 H   0  0  0  0  0  0  0  0  0  0  0  0
  -18.7143   -0.2156   -5.7623 H   0  0  0  0  0  0  0  0  0  0  0  0
  -20.1106   -1.2319   -6.0750 H   0  0  0  0  0  0  0  0  0  0  0  0
  -18.7584   -3.2845   -5.4456 H   0  0  0  0  0  0  0  0  0  0  0  0
  -17.3143   -2.2583   -5.3334 H   0  0  0  0  0  0  0  0  0  0  0  0
  -17.0335   -2.3421   -7.4902 H   0  0  0  0  0  0  0  0  0  0  0  0
  -16.4449   -3.8179   -8.9578 H   0  0  0  0  0  0  0  0  0  0  0  0
  -15.7741   -4.2904  -11.2916 H   0  0  0  0  0  0  0  0  0  0  0  0
  -20.3675   -2.6519  -10.3388 H   0  0  0  0  0  0  0  0  0  0  0  0
  -19.5928   -3.5399  -13.9251 H   0  0  0  0  0  0  0  0  0  0  0  0
  -20.3259   -2.1664  -13.0769 H   0  0  0  0  0  0  0  0  0  0  0  0
  -20.8665   -3.8318  -12.7361 H   0  0  0  0  0  0  0  0  0  0  0  0
  1  2  1  0  0  0  0
  1 56  1  0  0  0  0
  1 57  1  0  0  0  0
  1 58  1  0  0  0  0
  2  3  1  0  0  0  0
  2  7  1  0  0  0  0
  3  4  1  0  0  0  0
  3 59  1  0  0  0  0
  3 60  1  0  0  0  0
  4  5  1  0  0  0  0
  4 61  1  0  0  0  0
  4 62  1  0  0  0  0
  5  6  1  0  0  0  0
  5  8  1  0  0  0  0
  6  7  1  0  0  0  0
  6 63  1  0  0  0  0
  6 64  1  0  0  0  0
  7 65  1  0  0  0  0
  7 66  1  0  0  0  0
  8  9  1  0  0  0  0
  8 13  2  0  0  0  0
  9 10  2  0  0  0  0
  9 67  1  0  0  0  0
 10 11  1  0  0  0  0
 10 68  1  0  0  0  0
 11 12  2  0  0  0  0
 11 14  1  0  0  0  0
 12 13  1  0  0  0  0
 12 69  1  0  0  0  0
 13 70  1  0  0  0  0
 14 15  1  0  0  0  0
 14 19  2  0  0  0  0
 15 16  2  0  0  0  0
 15 71  1  0  0  0  0
 16 17  1  0  0  0  0
 16 72  1  0  0  0  0
 17 18  2  0  0  0  0
 17 22  1  0  0  0  0
 18 19  1  0  0  0  0
 18 20  1  0  0  0  0
 19 73  1  0  0  0  0
 20 21  1  0  0  0  0
 20 74  1  0  0  0  0
 21 22  2  0  0  0  0
 21 23  1  0  0  0  0
 23 24  1  0  0  0  0
 23 28  2  0  0  0  0
 24 25  2  0  0  0  0
 24 75  1  0  0  0  0
 25 26  1  0  0  0  0
 25 76  1  0  0  0  0
 26 27  2  0  0  0  0
 26 29  1  0  0  0  0
 27 28  1  0  0  0  0
 27 77  1  0  0  0  0
 28 78  1  0  0  0  0
 29 30  1  0  0  0  0
 30 31  1  0  0  0  0
 30 79  1  0  0  0  0
 30 80  1  0  0  0  0
 31 32  1  0  0  0  0
 31 81  1  0  0  0  0
 31 82  1  0  0  0  0
 32 33  1  0  0  0  0
 32 83  1  0  0  0  0
 32 84  1  0  0  0  0
 33 34  2  0  0  0  0
 33 35  1  0  0  0  0
 35 36  1  0  0  0  0
 35 43  1  0  0  0  0
 36 37  1  0  0  0  0
 36 85  1  0  0  0  0
 36 86  1  0  0  0  0
 37 38  1  0  0  0  0
 37 42  2  0  0  0  0
 38 39  2  0  0  0  0
 38 87  1  0  0  0  0
 39 40  1  0  0  0  0
 39 88  1  0  0  0  0
 40 41  2  0  0  0  0
 41 42  1  0  0  0  0
 41 89  1  0  0  0  0
 42 90  1  0  0  0  0
 43 44  1  0  0  0  0
 43 91  1  0  0  0  0
 43 92  1  0  0  0  0
 44 45  1  0  0  0  0
 44 93  1  0  0  0  0
 44 94  1  0  0  0  0
 45 46  1  0  0  0  0
 45 95  1  0  0  0  0
 46 47  2  0  0  0  0
 46 48  1  0  0  0  0
 48 49  1  0  0  0  0
 48 53  2  0  0  0  0
 49 50  2  0  0  0  0
 49 96  1  0  0  0  0
 50 51  1  0  0  0  0
 50 97  1  0  0  0  0
 51 52  2  0  0  0  0
 51 55  1  0  0  0  0
 52 53  1  0  0  0  0
 52 54  1  0  0  0  0
 53 98  1  0  0  0  0
 54 99  1  0  0  0  0
 54100  1  0  0  0  0
 54101  1  0  0  0  0
M  END
$$$$
Target_lig_968
 OpenBabel04172506213D

 99106  0  0  1  0  0  0  0  0999 V2000
    3.2912    0.7747    1.0019 C   0  0  0  0  0  0  0  0  0  0  0  0
    2.4470   -0.0135    0.1737 O   0  0  0  0  0  0  0  0  0  0  0  0
    3.0991   -0.9894   -0.5377 C   0  0  0  0  0  0  0  0  0  0  0  0
    2.4840   -1.2970   -1.7677 C   0  0  0  0  0  0  0  0  0  0  0  0
    3.0309   -2.2570   -2.6250 C   0  0  0  0  0  0  0  0  0  0  0  0
    4.1976   -2.9302   -2.2892 C   0  0  0  0  0  0  0  0  0  0  0  0
    4.8087   -2.6053   -1.0670 C   0  0  0  0  0  0  0  0  0  0  0  0
    4.2831   -1.6703   -0.1736 C   0  0  0  0  0  0  0  0  0  0  0  0
    4.8818   -1.5168    1.0677 O   0  0  0  0  0  0  0  0  0  0  0  0
    6.3192   -1.5576    1.0921 C   0  0  0  0  0  0  0  0  0  0  0  0
    7.0500   -2.8824    1.3927 C   0  0  0  0  0  0  0  0  0  0  0  0
    7.9849   -3.4158    0.6296 N   0  0  0  0  0  0  0  0  0  0  0  0
    8.1838   -4.7556    1.2740 C   0  0  3  0  0  0  0  0  0  0  0  0
    7.7565   -4.6515    2.6653 N   0  0  0  0  0  0  0  0  0  0  0  0
    6.7240   -3.6301    2.6706 C   0  0  0  0  0  0  0  0  0  0  0  0
    8.6305   -4.8898    3.7103 C   0  0  0  0  0  0  0  0  0  0  0  0
    9.8292   -5.4728    3.5483 C   0  0  0  0  0  0  0  0  0  0  0  0
   10.2657   -5.8145    2.2123 C   0  0  0  0  0  0  0  0  0  0  0  0
    9.5493   -5.4069    1.1448 C   0  0  0  0  0  0  0  0  0  0  0  0
    4.7954   -3.9466   -3.1035 N   0  0  0  0  0  0  0  0  0  0  0  0
    4.3052   -4.3809   -4.3247 C   0  0  0  0  0  0  0  0  0  0  0  0
    3.2894   -3.9753   -4.8565 O   0  0  0  0  0  0  0  0  0  0  0  0
    5.1120   -5.5006   -5.0180 C   0  0  0  0  0  0  0  0  0  0  0  0
    4.9261   -5.4122   -6.5582 C   0  0  0  0  0  0  0  0  0  0  0  0
    5.6522   -6.4906   -7.3836 C   0  0  0  0  0  0  0  0  0  0  0  0
    5.4216   -6.2813   -8.8035 O   0  0  0  0  0  0  0  0  0  0  0  0
    6.0022   -7.1963   -9.6640 C   0  0  0  0  0  0  0  0  0  0  0  0
    6.2737   -8.5145   -9.3209 C   0  0  0  0  0  0  0  0  0  0  0  0
    6.8790   -9.3854  -10.2465 C   0  0  0  0  0  0  0  0  0  0  0  0
    7.2130   -9.0025  -11.5672 C   0  0  0  0  0  0  0  0  0  0  0  0
    6.8975   -7.6855  -11.9251 C   0  0  0  0  0  0  0  0  0  0  0  0
    6.2867   -6.8001  -10.9847 C   0  0  0  0  0  0  0  0  0  0  0  0
    7.9220   -9.9959  -12.4210 C   0  0  0  0  0  0  0  0  0  0  0  0
    7.9103  -10.1720  -13.8227 N   0  0  0  0  0  0  0  0  0  0  0  0
    8.7385  -11.2416  -14.1362 C   0  0  0  0  0  0  0  0  0  0  0  0
    9.2147  -11.6592  -12.9065 C   0  0  0  0  0  0  0  0  0  0  0  0
    8.6910  -10.9363  -11.8911 N   0  0  0  0  0  0  0  0  0  0  0  0
   10.1286  -12.7150  -12.8160 C   0  0  0  0  0  0  0  0  0  0  0  0
   10.5074  -13.3880  -13.9785 C   0  0  0  0  0  0  0  0  0  0  0  0
   10.0108  -13.0275  -15.2444 C   0  0  0  0  0  0  0  0  0  0  0  0
    9.1208  -11.9037  -15.3343 C   0  0  0  0  0  0  0  0  0  0  0  0
   10.3307  -13.9088  -16.4087 C   0  0  0  0  0  0  0  0  0  0  0  0
    9.4355  -14.0250  -17.4765 C   0  0  0  0  0  0  0  0  0  0  0  0
    9.6262  -14.9572  -18.4981 C   0  0  0  0  0  0  0  0  0  0  0  0
   10.7213  -15.8196  -18.5194 C   0  0  0  0  0  0  0  0  0  0  0  0
   11.6483  -15.6916  -17.4866 C   0  0  0  0  0  0  0  0  0  0  0  0
   11.4563  -14.7606  -16.4490 C   0  0  0  0  0  0  0  0  0  0  0  0
   10.8478  -16.7081  -19.5647 N   0  0  0  0  0  0  0  0  0  0  0  0
   12.1577  -17.1945  -20.0095 C   0  0  0  0  0  0  0  0  0  0  0  0
   12.0910  -17.4904  -21.5279 C   0  0  0  0  0  0  0  0  0  0  0  0
   11.0277  -18.4673  -21.8661 N   0  0  0  0  0  0  0  0  0  0  0  0
    9.7265  -17.9446  -21.3826 C   0  0  0  0  0  0  0  0  0  0  0  0
    9.7342  -17.6278  -19.8656 C   0  0  0  0  0  0  0  0  0  0  0  0
   10.9909  -18.7072  -23.3065 C   0  0  0  0  0  0  0  0  0  0  0  0
    2.7157    1.6088    1.4150 H   0  0  0  0  0  0  0  0  0  0  0  0
    4.1264    1.1905    0.4265 H   0  0  0  0  0  0  0  0  0  0  0  0
    3.6413    0.2006    1.8613 H   0  0  0  0  0  0  0  0  0  0  0  0
    1.5745   -0.7888   -2.0952 H   0  0  0  0  0  0  0  0  0  0  0  0
    2.5150   -2.4459   -3.5614 H   0  0  0  0  0  0  0  0  0  0  0  0
    5.7275   -3.0981   -0.8014 H   0  0  0  0  0  0  0  0  0  0  0  0
    6.6246   -0.8708    1.8912 H   0  0  0  0  0  0  0  0  0  0  0  0
    6.7088   -1.1397    0.1604 H   0  0  0  0  0  0  0  0  0  0  0  0
    7.4940   -5.4432    0.7635 H   0  0  0  0  0  0  0  0  0  0  0  0
    6.7672   -2.9648    3.5352 H   0  0  0  0  0  0  0  0  0  0  0  0
    5.7365   -4.0834    2.5604 H   0  0  0  0  0  0  0  0  0  0  0  0
    8.2882   -4.5569    4.6888 H   0  0  0  0  0  0  0  0  0  0  0  0
   10.4893   -5.6565    4.3904 H   0  0  0  0  0  0  0  0  0  0  0  0
   11.1679   -6.4155    2.1120 H   0  0  0  0  0  0  0  0  0  0  0  0
    9.8734   -5.7209    0.1580 H   0  0  0  0  0  0  0  0  0  0  0  0
    5.6257   -4.3832   -2.7216 H   0  0  0  0  0  0  0  0  0  0  0  0
    4.7207   -6.4578   -4.6517 H   0  0  0  0  0  0  0  0  0  0  0  0
    6.1711   -5.4299   -4.7488 H   0  0  0  0  0  0  0  0  0  0  0  0
    5.2531   -4.4227   -6.9009 H   0  0  0  0  0  0  0  0  0  0  0  0
    3.8570   -5.4625   -6.8062 H   0  0  0  0  0  0  0  0  0  0  0  0
    5.2681   -7.4667   -7.0718 H   0  0  0  0  0  0  0  0  0  0  0  0
    6.7303   -6.4334   -7.1976 H   0  0  0  0  0  0  0  0  0  0  0  0
    6.0015   -8.9176   -8.3517 H   0  0  0  0  0  0  0  0  0  0  0  0
    7.0768  -10.4023   -9.9031 H   0  0  0  0  0  0  0  0  0  0  0  0
    7.1238   -7.3040  -12.9198 H   0  0  0  0  0  0  0  0  0  0  0  0
    6.0353   -5.7898  -11.3098 H   0  0  0  0  0  0  0  0  0  0  0  0
    7.3587   -9.6375  -14.4727 H   0  0  0  0  0  0  0  0  0  0  0  0
   10.5084  -13.0332  -11.8498 H   0  0  0  0  0  0  0  0  0  0  0  0
   11.1999  -14.2131  -13.8570 H   0  0  0  0  0  0  0  0  0  0  0  0
    8.7301  -11.5675  -16.2878 H   0  0  0  0  0  0  0  0  0  0  0  0
    8.5318  -13.4271  -17.5151 H   0  0  0  0  0  0  0  0  0  0  0  0
    8.8981  -15.0051  -19.3022 H   0  0  0  0  0  0  0  0  0  0  0  0
   12.5139  -16.3486  -17.4405 H   0  0  0  0  0  0  0  0  0  0  0  0
   12.2045  -14.7589  -15.6600 H   0  0  0  0  0  0  0  0  0  0  0  0
   12.4391  -18.1004  -19.4587 H   0  0  0  0  0  0  0  0  0  0  0  0
   12.9336  -16.4378  -19.8446 H   0  0  0  0  0  0  0  0  0  0  0  0
   13.0657  -17.8742  -21.8494 H   0  0  0  0  0  0  0  0  0  0  0  0
   11.9158  -16.5465  -22.0640 H   0  0  0  0  0  0  0  0  0  0  0  0
    8.9358  -18.6768  -21.5845 H   0  0  0  0  0  0  0  0  0  0  0  0
    9.4679  -17.0238  -21.9233 H   0  0  0  0  0  0  0  0  0  0  0  0
    9.8518  -18.5580  -19.2919 H   0  0  0  0  0  0  0  0  0  0  0  0
    8.7570  -17.2132  -19.5936 H   0  0  0  0  0  0  0  0  0  0  0  0
   11.9467  -19.1207  -23.6478 H   0  0  0  0  0  0  0  0  0  0  0  0
   10.7872  -17.7952  -23.8790 H   0  0  0  0  0  0  0  0  0  0  0  0
   10.2230  -19.4486  -23.5528 H   0  0  0  0  0  0  0  0  0  0  0  0
  1  2  1  0  0  0  0
  1 55  1  0  0  0  0
  1 56  1  0  0  0  0
  1 57  1  0  0  0  0
  2  3  1  0  0  0  0
  3  4  1  0  0  0  0
  3  8  2  0  0  0  0
  4  5  2  0  0  0  0
  4 58  1  0  0  0  0
  5  6  1  0  0  0  0
  5 59  1  0  0  0  0
  6  7  2  0  0  0  0
  6 20  1  0  0  0  0
  7  8  1  0  0  0  0
  7 60  1  0  0  0  0
  8  9  1  0  0  0  0
  9 10  1  0  0  0  0
 10 11  1  0  0  0  0
 10 61  1  0  0  0  0
 10 62  1  0  0  0  0
 11 12  2  0  0  0  0
 11 15  1  0  0  0  0
 12 13  1  0  0  0  0
 13 14  1  0  0  0  0
 13 19  1  0  0  0  0
 13 63  1  0  0  0  0
 14 15  1  0  0  0  0
 14 16  1  0  0  0  0
 15 64  1  0  0  0  0
 15 65  1  0  0  0  0
 16 17  2  0  0  0  0
 16 66  1  0  0  0  0
 17 18  1  0  0  0  0
 17 67  1  0  0  0  0
 18 19  2  0  0  0  0
 18 68  1  0  0  0  0
 19 69  1  0  0  0  0
 20 21  1  0  0  0  0
 20 70  1  0  0  0  0
 21 22  2  0  0  0  0
 21 23  1  0  0  0  0
 23 24  1  0  0  0  0
 23 71  1  0  0  0  0
 23 72  1  0  0  0  0
 24 25  1  0  0  0  0
 24 73  1  0  0  0  0
 24 74  1  0  0  0  0
 25 26  1  0  0  0  0
 25 75  1  0  0  0  0
 25 76  1  0  0  0  0
 26 27  1  0  0  0  0
 27 28  1  0  0  0  0
 27 32  2  0  0  0  0
 28 29  2  0  0  0  0
 28 77  1  0  0  0  0
 29 30  1  0  0  0  0
 29 78  1  0  0  0  0
 30 31  2  0  0  0  0
 30 33  1  0  0  0  0
 31 32  1  0  0  0  0
 31 79  1  0  0  0  0
 32 80  1  0  0  0  0
 33 34  1  0  0  0  0
 33 37  2  0  0  0  0
 34 35  1  0  0  0  0
 34 81  1  0  0  0  0
 35 36  1  0  0  0  0
 35 41  2  0  0  0  0
 36 37  1  0  0  0  0
 36 38  2  0  0  0  0
 38 39  1  0  0  0  0
 38 82  1  0  0  0  0
 39 40  2  0  0  0  0
 39 83  1  0  0  0  0
 40 41  1  0  0  0  0
 40 42  1  0  0  0  0
 41 84  1  0  0  0  0
 42 43  1  0  0  0  0
 42 47  2  0  0  0  0
 43 44  2  0  0  0  0
 43 85  1  0  0  0  0
 44 45  1  0  0  0  0
 44 86  1  0  0  0  0
 45 46  2  0  0  0  0
 45 48  1  0  0  0  0
 46 47  1  0  0  0  0
 46 87  1  0  0  0  0
 47 88  1  0  0  0  0
 48 49  1  0  0  0  0
 48 53  1  0  0  0  0
 49 50  1  0  0  0  0
 49 89  1  0  0  0  0
 49 90  1  0  0  0  0
 50 51  1  0  0  0  0
 50 91  1  0  0  0  0
 50 92  1  0  0  0  0
 51 52  1  0  0  0  0
 51 54  1  0  0  0  0
 52 53  1  0  0  0  0
 52 93  1  0  0  0  0
 52 94  1  0  0  0  0
 53 95  1  0  0  0  0
 53 96  1  0  0  0  0
 54 97  1  0  0  0  0
 54 98  1  0  0  0  0
 54 99  1  0  0  0  0
M  END
$$$$
Target_lig_994
 OpenBabel04172506213D

 42 46  0  0  0  0  0  0  0  0999 V2000
    1.1529   -0.0507   -0.1790 C   0  0  0  0  0  0  0  0  0  0  0  0
    0.3970   -1.2248   -0.2584 C   0  0  0  0  0  0  0  0  0  0  0  0
   -1.0003   -1.1685   -0.2814 C   0  0  0  0  0  0  0  0  0  0  0  0
   -1.6239    0.0983   -0.2754 C   0  0  0  0  0  0  0  0  0  0  0  0
   -0.8816    1.2818   -0.1848 C   0  0  0  0  0  0  0  0  0  0  0  0
    0.5146    1.1922   -0.1290 C   0  0  0  0  0  0  0  0  0  0  0  0
   -1.5538    2.5823   -0.1504 C   0  0  0  0  0  0  0  0  0  0  0  0
   -2.6684    2.9087    0.4842 N   0  0  0  0  0  0  0  0  0  0  0  0
   -2.8671    4.2540    0.2335 C   0  0  0  0  0  0  0  0  0  0  0  0
   -1.8794    4.7427   -0.6079 C   0  0  0  0  0  0  0  0  0  0  0  0
   -1.0664    3.6692   -0.8355 N   0  0  0  0  0  0  0  0  0  0  0  0
   -1.8335    6.0575   -1.0757 C   0  0  0  0  0  0  0  0  0  0  0  0
   -2.8193    6.9412   -0.6239 C   0  0  0  0  0  0  0  0  0  0  0  0
   -3.8432    6.4693    0.2068 C   0  0  0  0  0  0  0  0  0  0  0  0
   -3.8718    5.1360    0.6624 C   0  0  0  0  0  0  0  0  0  0  0  0
   -2.9018    8.2185   -1.1948 N   0  0  0  0  0  0  0  0  0  0  0  0
   -1.7970   -2.4014   -0.2461 C   0  0  0  0  0  0  0  0  0  0  0  0
   -1.4204   -3.6461   -0.5124 N   0  0  0  0  0  0  0  0  0  0  0  0
   -2.5365   -4.4368   -0.2984 C   0  0  0  0  0  0  0  0  0  0  0  0
   -3.6060   -3.6612    0.1204 C   0  0  0  0  0  0  0  0  0  0  0  0
   -3.1074   -2.3958    0.1684 N   0  0  0  0  0  0  0  0  0  0  0  0
   -4.8757   -4.1558    0.4002 C   0  0  0  0  0  0  0  0  0  0  0  0
   -5.0689   -5.5361    0.2906 C   0  0  0  0  0  0  0  0  0  0  0  0
   -4.0201   -6.3461   -0.1639 C   0  0  0  0  0  0  0  0  0  0  0  0
   -2.7410   -5.8187   -0.4431 C   0  0  0  0  0  0  0  0  0  0  0  0
   -6.3689   -6.0490    0.4084 N   0  0  0  0  0  0  0  0  0  0  0  0
    2.2339   -0.1056   -0.1326 H   0  0  0  0  0  0  0  0  0  0  0  0
    0.9052   -2.1876   -0.2735 H   0  0  0  0  0  0  0  0  0  0  0  0
   -2.7058    0.1858   -0.3494 H   0  0  0  0  0  0  0  0  0  0  0  0
    1.1244    2.0865   -0.0233 H   0  0  0  0  0  0  0  0  0  0  0  0
   -0.2429    3.6677   -1.4148 H   0  0  0  0  0  0  0  0  0  0  0  0
   -1.0629    6.3779   -1.7674 H   0  0  0  0  0  0  0  0  0  0  0  0
   -4.6448    7.1394    0.5092 H   0  0  0  0  0  0  0  0  0  0  0  0
   -4.6670    4.7900    1.3145 H   0  0  0  0  0  0  0  0  0  0  0  0
   -2.0202    8.5716   -1.5527 H   0  0  0  0  0  0  0  0  0  0  0  0
   -3.3918    8.9009   -0.6259 H   0  0  0  0  0  0  0  0  0  0  0  0
   -3.6122   -1.5857    0.4877 H   0  0  0  0  0  0  0  0  0  0  0  0
   -5.6830   -3.4921    0.6875 H   0  0  0  0  0  0  0  0  0  0  0  0
   -4.1885   -7.4102   -0.3140 H   0  0  0  0  0  0  0  0  0  0  0  0
   -1.9380   -6.4639   -0.7823 H   0  0  0  0  0  0  0  0  0  0  0  0
   -6.9816   -5.4808    0.9849 H   0  0  0  0  0  0  0  0  0  0  0  0
   -6.4075   -7.0319    0.6504 H   0  0  0  0  0  0  0  0  0  0  0  0
  1  2  2  0  0  0  0
  1  6  1  0  0  0  0
  1 27  1  0  0  0  0
  2  3  1  0  0  0  0
  2 28  1  0  0  0  0
  3  4  2  0  0  0  0
  3 17  1  0  0  0  0
  4  5  1  0  0  0  0
  4 29  1  0  0  0  0
  5  6  2  0  0  0  0
  5  7  1  0  0  0  0
  6 30  1  0  0  0  0
  7  8  2  0  0  0  0
  7 11  1  0  0  0  0
  8  9  1  0  0  0  0
  9 10  2  0  0  0  0
  9 15  1  0  0  0  0
 10 11  1  0  0  0  0
 10 12  1  0  0  0  0
 11 31  1  0  0  0  0
 12 13  2  0  0  0  0
 12 32  1  0  0  0  0
 13 14  1  0  0  0  0
 13 16  1  0  0  0  0
 14 15  2  0  0  0  0
 14 33  1  0  0  0  0
 15 34  1  0  0  0  0
 16 35  1  0  0  0  0
 16 36  1  0  0  0  0
 17 18  2  0  0  0  0
 17 21  1  0  0  0  0
 18 19  1  0  0  0  0
 19 20  2  0  0  0  0
 19 25  1  0  0  0  0
 20 21  1  0  0  0  0
 20 22  1  0  0  0  0
 21 37  1  0  0  0  0
 22 23  2  0  0  0  0
 22 38  1  0  0  0  0
 23 24  1  0  0  0  0
 23 26  1  0  0  0  0
 24 25  2  0  0  0  0
 24 39  1  0  0  0  0
 25 40  1  0  0  0  0
 26 41  1  0  0  0  0
 26 42  1  0  0  0  0
M  END
$$$$
Target_lig_995
 OpenBabel04172506223D

 58 62  0  0  0  0  0  0  0  0999 V2000
    1.0945   -0.7943   -2.8173 C   0  0  0  0  0  0  0  0  0  0  0  0
    0.4082   -0.3479   -1.6283 N   0  0  0  0  0  0  0  0  0  0  0  0
   -0.7191    0.5148   -1.9595 C   0  0  0  0  0  0  0  0  0  0  0  0
   -1.3816    1.0556   -0.7000 C   0  0  0  0  0  0  0  0  0  0  0  0
   -1.8425   -0.0073    0.1837 N   0  0  0  0  0  0  0  0  0  0  0  0
   -0.8195   -1.0280    0.4152 C   0  0  0  0  0  0  0  0  0  0  0  0
   -0.1462   -1.4761   -0.8876 C   0  0  0  0  0  0  0  0  0  0  0  0
   -3.1110   -0.0242    0.7803 C   0  0  0  0  0  0  0  0  0  0  0  0
   -3.3137   -0.6359    2.0214 C   0  0  0  0  0  0  0  0  0  0  0  0
   -4.5657   -0.6322    2.6345 C   0  0  0  0  0  0  0  0  0  0  0  0
   -4.7674   -1.2113    3.9229 N   0  0  0  0  0  0  0  0  0  0  0  0
   -3.7478   -1.2609    4.9173 C   0  0  0  0  0  0  0  0  0  0  0  0
   -2.7960   -0.3030    4.9696 N   0  0  0  0  0  0  0  0  0  0  0  0
   -1.9022   -0.3707    5.9681 C   0  0  0  0  0  0  0  0  0  0  0  0
   -1.9009   -1.3586    6.9158 C   0  0  0  0  0  0  0  0  0  0  0  0
   -2.8492   -2.3748    6.8824 C   0  0  0  0  0  0  0  0  0  0  0  0
   -3.7733   -2.3034    5.8524 C   0  0  0  0  0  0  0  0  0  0  0  0
   -2.8419   -3.4136    7.8587 N   0  0  0  0  0  0  0  0  0  0  0  0
   -3.2993   -4.7394    7.6044 C   0  0  0  0  0  0  0  0  0  0  0  0
   -3.8467   -5.4767    8.6583 C   0  0  0  0  0  0  0  0  0  0  0  0
   -4.2383   -6.7892    8.4724 C   0  0  0  0  0  0  0  0  0  0  0  0
   -4.0933   -7.3869    7.1505 C   0  0  0  0  0  0  0  0  0  0  0  0
   -3.6774   -6.5539    6.2291 C   0  0  0  0  0  0  0  0  0  0  0  0
   -3.1842   -5.2721    6.3919 N   0  0  0  0  0  0  0  0  0  0  0  0
   -3.4262   -6.9718    4.9933 C   0  0  0  0  0  0  0  0  0  0  0  0
   -3.7959   -8.2459    4.7594 C   0  0  0  0  0  0  0  0  0  0  0  0
   -4.1251   -9.4112    4.5166 C   0  0  0  0  0  0  0  0  0  0  0  0
   -4.3008   -8.7055    6.2806 C   0  0  0  0  0  0  0  0  0  0  0  0
   -5.6074   -0.0738    1.9972 N   0  0  0  0  0  0  0  0  0  0  0  0
   -5.3663    0.4904    0.8032 C   0  0  0  0  0  0  0  0  0  0  0  0
   -4.1669    0.5525    0.1846 N   0  0  0  0  0  0  0  0  0  0  0  0
   -6.5176    1.0990    0.0920 C   0  0  0  0  0  0  0  0  0  0  0  0
    1.4990    0.0610   -3.3512 H   0  0  0  0  0  0  0  0  0  0  0  0
    0.4208   -1.3324   -3.4740 H   0  0  0  0  0  0  0  0  0  0  0  0
    1.9181   -1.4489   -2.5448 H   0  0  0  0  0  0  0  0  0  0  0  0
   -1.4563   -0.0472   -2.5280 H   0  0  0  0  0  0  0  0  0  0  0  0
   -0.3609    1.3455   -2.5539 H   0  0  0  0  0  0  0  0  0  0  0  0
   -2.2209    1.6636   -0.9840 H   0  0  0  0  0  0  0  0  0  0  0  0
   -0.6321    1.6474   -0.1763 H   0  0  0  0  0  0  0  0  0  0  0  0
   -1.2772   -1.8891    0.8724 H   0  0  0  0  0  0  0  0  0  0  0  0
   -0.0377   -0.6229    1.0522 H   0  0  0  0  0  0  0  0  0  0  0  0
   -0.8845   -1.9820   -1.5070 H   0  0  0  0  0  0  0  0  0  0  0  0
    0.6631   -2.1548   -0.6491 H   0  0  0  0  0  0  0  0  0  0  0  0
   -2.4902   -1.1051    2.5107 H   0  0  0  0  0  0  0  0  0  0  0  0
   -5.6690   -1.6367    4.1503 H   0  0  0  0  0  0  0  0  0  0  0  0
   -1.1506    0.3966    6.0073 H   0  0  0  0  0  0  0  0  0  0  0  0
   -1.1589   -1.3408    7.6888 H   0  0  0  0  0  0  0  0  0  0  0  0
   -4.5299   -3.0523    5.7572 H   0  0  0  0  0  0  0  0  0  0  0  0
   -2.5095   -3.2057    8.8095 H   0  0  0  0  0  0  0  0  0  0  0  0
   -3.9525   -5.0073    9.6169 H   0  0  0  0  0  0  0  0  0  0  0  0
   -4.6501   -7.3593    9.2832 H   0  0  0  0  0  0  0  0  0  0  0  0
   -3.0472   -6.5653    4.1138 H   0  0  0  0  0  0  0  0  0  0  0  0
   -4.2702   -9.2781    5.0087 H   0  0  0  0  0  0  0  0  0  0  0  0
   -3.7590   -9.2123    3.0962 H   0  0  0  0  0  0  0  0  0  0  0  0
   -4.8198   -9.3770    7.4489 H   0  0  0  0  0  0  0  0  0  0  0  0
   -7.4207    0.9903    0.6820 H   0  0  0  0  0  0  0  0  0  0  0  0
   -6.6614    0.6089   -0.8652 H   0  0  0  0  0  0  0  0  0  0  0  0
   -6.3310    2.1540   -0.0760 H   0  0  0  0  0  0  0  0  0  0  0  0
  1  2  1  0  0  0  0
  1 33  1  0  0  0  0
  1 34  1  0  0  0  0
  1 35  1  0  0  0  0
  2  3  1  0  0  0  0
  2  7  1  0  0  0  0
  3  4  1  0  0  0  0
  3 36  1  0  0  0  0
  3 37  1  0  0  0  0
  4  5  1  0  0  0  0
  4 38  1  0  0  0  0
  4 39  1  0  0  0  0
  5  6  1  0  0  0  0
  5  8  1  0  0  0  0
  6  7  1  0  0  0  0
  6 40  1  0  0  0  0
  6 41  1  0  0  0  0
  7 42  1  0  0  0  0
  7 43  1  0  0  0  0
  8  9  1  0  0  0  0
  8 31  2  0  0  0  0
  9 10  2  0  0  0  0
  9 44  1  0  0  0  0
 10 11  1  0  0  0  0
 10 29  1  0  0  0  0
 11 12  1  0  0  0  0
 11 45  1  0  0  0  0
 12 13  1  0  0  0  0
 12 17  2  0  0  0  0
 13 14  2  0  0  0  0
 14 15  1  0  0  0  0
 14 46  1  0  0  0  0
 15 16  2  0  0  0  0
 15 47  1  0  0  0  0
 16 17  1  0  0  0  0
 16 18  1  0  0  0  0
 17 48  1  0  0  0  0
 18 19  1  0  0  0  0
 18 49  1  0  0  0  0
 19 20  1  0  0  0  0
 19 24  2  0  0  0  0
 20 21  2  0  0  0  0
 20 50  1  0  0  0  0
 21 22  1  0  0  0  0
 21 51  1  0  0  0  0
 22 23  1  0  0  0  0
 22 28  2  0  0  0  0
 23 24  1  0  0  0  0
 23 25  2  0  0  0  0
 25 26  1  0  0  0  0
 25 52  1  0  0  0  0
 26 27  2  0  0  0  0
 26 53  1  0  0  0  0
 27 28  1  0  0  0  0
 27 54  1  0  0  0  0
 28 55  1  0  0  0  0
 29 30  2  0  0  0  0
 30 31  1  0  0  0  0
 30 32  1  0  0  0  0
 32 56  1  0  0  0  0
 32 57  1  0  0  0  0
 32 58  1  0  0  0  0
M  END
$$$$
Target_lig_996
 OpenBabel04172506223D

 61 65  0  0  0  0  0  0  0  0999 V2000
    2.1918    2.4715   -0.5589 C   0  0  0  0  0  0  0  0  0  0  0  0
    2.4091    1.0452   -0.0851 C   0  0  0  0  0  0  0  0  0  0  0  0
    3.0452    1.1037    1.2007 O   0  0  0  0  0  0  0  0  0  0  0  0
    4.4093    1.1288    1.1794 C   0  0  0  0  0  0  0  0  0  0  0  0
    5.1071    0.8557    0.2143 O   0  0  0  0  0  0  0  0  0  0  0  0
    4.9146    1.6373    2.5087 C   0  0  0  0  0  0  0  0  0  0  0  0
    6.4297    1.8461    2.5107 C   0  0  0  0  0  0  0  0  0  0  0  0
    6.9042    2.4198    3.8470 C   0  0  0  0  0  0  0  0  0  0  0  0
    8.3151    2.6591    3.7971 O   0  0  0  0  0  0  0  0  0  0  0  0
    8.9206    3.0283    4.9743 C   0  0  0  0  0  0  0  0  0  0  0  0
    8.4094    2.8165    6.2531 C   0  0  0  0  0  0  0  0  0  0  0  0
    9.1437    3.1878    7.3906 C   0  0  0  0  0  0  0  0  0  0  0  0
   10.4021    3.8096    7.2195 C   0  0  0  0  0  0  0  0  0  0  0  0
   10.9548    4.0129    5.9482 C   0  0  0  0  0  0  0  0  0  0  0  0
   10.1894    3.6101    4.8352 C   0  0  0  0  0  0  0  0  0  0  0  0
   12.3055    4.5906    5.7911 C   0  0  0  0  0  0  0  0  0  0  0  0
   13.2255    4.8323    6.7258 N   0  0  0  0  0  0  0  0  0  0  0  0
   14.3411    5.3355    6.0600 C   0  0  0  0  0  0  0  0  0  0  0  0
   14.0817    5.4243    4.7032 C   0  0  0  0  0  0  0  0  0  0  0  0
   12.8025    4.9711    4.5670 N   0  0  0  0  0  0  0  0  0  0  0  0
   14.9895    5.9031    3.7564 C   0  0  0  0  0  0  0  0  0  0  0  0
   16.2571    6.2773    4.2046 C   0  0  0  0  0  0  0  0  0  0  0  0
   16.5419    6.2395    5.5752 C   0  0  0  0  0  0  0  0  0  0  0  0
   15.6053    5.7528    6.5164 C   0  0  0  0  0  0  0  0  0  0  0  0
   17.1324    6.9081    3.3079 N   0  0  0  0  0  0  0  0  0  0  0  0
    8.5993    2.8847    8.7252 C   0  0  0  0  0  0  0  0  0  0  0  0
    7.5590    2.1160    9.0228 N   0  0  0  0  0  0  0  0  0  0  0  0
    7.4465    2.1335   10.4005 C   0  0  0  0  0  0  0  0  0  0  0  0
    8.4266    2.9435   10.9508 C   0  0  0  0  0  0  0  0  0  0  0  0
    9.1444    3.3820    9.8804 N   0  0  0  0  0  0  0  0  0  0  0  0
    8.5528    3.2031   12.3125 C   0  0  0  0  0  0  0  0  0  0  0  0
    7.6538    2.5731   13.1772 C   0  0  0  0  0  0  0  0  0  0  0  0
    6.6405    1.7599   12.6507 C   0  0  0  0  0  0  0  0  0  0  0  0
    6.5333    1.5112   11.2668 C   0  0  0  0  0  0  0  0  0  0  0  0
    7.6355    2.9555   14.5246 N   0  0  0  0  0  0  0  0  0  0  0  0
    1.7145    2.4983   -1.5411 H   0  0  0  0  0  0  0  0  0  0  0  0
    3.1432    3.0117   -0.6118 H   0  0  0  0  0  0  0  0  0  0  0  0
    1.5639    3.0149    0.1559 H   0  0  0  0  0  0  0  0  0  0  0  0
    2.9919    0.4667   -0.8107 H   0  0  0  0  0  0  0  0  0  0  0  0
    1.4459    0.5393    0.0381 H   0  0  0  0  0  0  0  0  0  0  0  0
    4.6229    0.9277    3.2902 H   0  0  0  0  0  0  0  0  0  0  0  0
    4.4208    2.5981    2.6990 H   0  0  0  0  0  0  0  0  0  0  0  0
    6.7287    2.5086    1.6888 H   0  0  0  0  0  0  0  0  0  0  0  0
    6.9397    0.8928    2.3209 H   0  0  0  0  0  0  0  0  0  0  0  0
    6.6545    1.6891    4.6214 H   0  0  0  0  0  0  0  0  0  0  0  0
    6.3932    3.3691    4.0471 H   0  0  0  0  0  0  0  0  0  0  0  0
    7.4492    2.3337    6.4080 H   0  0  0  0  0  0  0  0  0  0  0  0
   10.9911    4.1227    8.0779 H   0  0  0  0  0  0  0  0  0  0  0  0
   10.5694    3.7211    3.8238 H   0  0  0  0  0  0  0  0  0  0  0  0
   12.3100    4.9132    3.6936 H   0  0  0  0  0  0  0  0  0  0  0  0
   14.7184    5.9769    2.7108 H   0  0  0  0  0  0  0  0  0  0  0  0
   17.5070    6.5918    5.9354 H   0  0  0  0  0  0  0  0  0  0  0  0
   15.8530    5.7145    7.5717 H   0  0  0  0  0  0  0  0  0  0  0  0
   16.9778    6.6579    2.3357 H   0  0  0  0  0  0  0  0  0  0  0  0
   18.1117    6.8622    3.5682 H   0  0  0  0  0  0  0  0  0  0  0  0
    9.9514    3.9888    9.9356 H   0  0  0  0  0  0  0  0  0  0  0  0
    9.3149    3.8794   12.6803 H   0  0  0  0  0  0  0  0  0  0  0  0
    5.9079    1.3125   13.3190 H   0  0  0  0  0  0  0  0  0  0  0  0
    5.7465    0.8743   10.8777 H   0  0  0  0  0  0  0  0  0  0  0  0
    8.5229    3.3158   14.8619 H   0  0  0  0  0  0  0  0  0  0  0  0
    7.2279    2.2705   15.1508 H   0  0  0  0  0  0  0  0  0  0  0  0
  1  2  1  0  0  0  0
  1 36  1  0  0  0  0
  1 37  1  0  0  0  0
  1 38  1  0  0  0  0
  2  3  1  0  0  0  0
  2 39  1  0  0  0  0
  2 40  1  0  0  0  0
  3  4  1  0  0  0  0
  4  5  2  0  0  0  0
  4  6  1  0  0  0  0
  6  7  1  0  0  0  0
  6 41  1  0  0  0  0
  6 42  1  0  0  0  0
  7  8  1  0  0  0  0
  7 43  1  0  0  0  0
  7 44  1  0  0  0  0
  8  9  1  0  0  0  0
  8 45  1  0  0  0  0
  8 46  1  0  0  0  0
  9 10  1  0  0  0  0
 10 11  2  0  0  0  0
 10 15  1  0  0  0  0
 11 12  1  0  0  0  0
 11 47  1  0  0  0  0
 12 13  2  0  0  0  0
 12 26  1  0  0  0  0
 13 14  1  0  0  0  0
 13 48  1  0  0  0  0
 14 15  2  0  0  0  0
 14 16  1  0  0  0  0
 15 49  1  0  0  0  0
 16 17  2  0  0  0  0
 16 20  1  0  0  0  0
 17 18  1  0  0  0  0
 18 19  2  0  0  0  0
 18 24  1  0  0  0  0
 19 20  1  0  0  0  0
 19 21  1  0  0  0  0
 20 50  1  0  0  0  0
 21 22  2  0  0  0  0
 21 51  1  0  0  0  0
 22 23  1  0  0  0  0
 22 25  1  0  0  0  0
 23 24  2  0  0  0  0
 23 52  1  0  0  0  0
 24 53  1  0  0  0  0
 25 54  1  0  0  0  0
 25 55  1  0  0  0  0
 26 27  2  0  0  0  0
 26 30  1  0  0  0  0
 27 28  1  0  0  0  0
 28 29  2  0  0  0  0
 28 34  1  0  0  0  0
 29 30  1  0  0  0  0
 29 31  1  0  0  0  0
 30 56  1  0  0  0  0
 31 32  2  0  0  0  0
 31 57  1  0  0  0  0
 32 33  1  0  0  0  0
 32 35  1  0  0  0  0
 33 34  2  0  0  0  0
 33 58  1  0  0  0  0
 34 59  1  0  0  0  0
 35 60  1  0  0  0  0
 35 61  1  0  0  0  0
M  END
$$$$
Target_lig_997
 OpenBabel04172506223D

 60 64  0  0  0  0  0  0  0  0999 V2000
    1.2813   -0.7752   -0.7734 C   0  0  0  0  0  0  0  0  0  0  0  0
    2.4810   -0.3877   -0.4407 C   0  0  0  0  0  0  0  0  0  0  0  0
    3.8795    0.0640   -0.0530 C   0  0  0  0  0  0  0  0  0  0  0  0
    4.3770    1.0739   -1.0660 C   0  0  0  0  0  0  0  0  0  0  0  0
    4.0260    2.3537   -0.8215 N   0  0  0  0  0  0  0  0  0  0  0  0
    4.2960    3.2514   -1.7648 C   0  0  0  0  0  0  0  0  0  0  0  0
    3.9081    4.5951   -1.6013 N   0  0  0  0  0  0  0  0  0  0  0  0
    3.6015    5.2149   -0.3879 C   0  0  0  0  0  0  0  0  0  0  0  0
    2.5868    6.1042   -0.4100 N   0  0  0  0  0  0  0  0  0  0  0  0
    2.2750    6.7070    0.7523 C   0  0  0  0  0  0  0  0  0  0  0  0
    2.9321    6.4653    1.9421 C   0  0  0  0  0  0  0  0  0  0  0  0
    3.9628    5.5286    1.9628 C   0  0  0  0  0  0  0  0  0  0  0  0
    4.3417    4.9471    0.7595 C   0  0  0  0  0  0  0  0  0  0  0  0
    4.6311    5.1778    3.1553 N   0  0  0  0  0  0  0  0  0  0  0  0
    4.0346    5.1576    4.4280 C   0  0  0  0  0  0  0  0  0  0  0  0
    2.6922    4.8104    4.5688 C   0  0  0  0  0  0  0  0  0  0  0  0
    2.0559    5.0500    5.7742 C   0  0  0  0  0  0  0  0  0  0  0  0
    2.8042    5.4935    6.8599 C   0  0  0  0  0  0  0  0  0  0  0  0
    4.1993    5.5946    6.6905 C   0  0  0  0  0  0  0  0  0  0  0  0
    4.7952    5.4959    5.4854 N   0  0  0  0  0  0  0  0  0  0  0  0
    4.9690    5.7344    7.8342 C   0  0  0  0  0  0  0  0  0  0  0  0
    4.3837    5.8146    9.1015 C   0  0  0  0  0  0  0  0  0  0  0  0
    3.0074    5.9579    9.2222 C   0  0  0  0  0  0  0  0  0  0  0  0
    2.2087    5.7725    8.1011 C   0  0  0  0  0  0  0  0  0  0  0  0
    4.9272    2.9168   -2.9336 C   0  0  0  0  0  0  0  0  0  0  0  0
    5.2665    1.5929   -3.1390 C   0  0  0  0  0  0  0  0  0  0  0  0
    5.0246    0.6601   -2.2019 N   0  0  0  0  0  0  0  0  0  0  0  0
    5.9258    1.2897   -4.3257 N   0  0  0  0  0  0  0  0  0  0  0  0
    6.7579    0.0954   -4.4496 C   0  0  0  0  0  0  0  0  0  0  0  0
    7.9030    0.4140   -5.4559 C   0  0  0  0  0  0  0  0  0  0  0  0
    7.3897    0.8598   -6.7770 N   0  0  0  0  0  0  0  0  0  0  0  0
    6.5217    2.0442   -6.5900 C   0  0  0  0  0  0  0  0  0  0  0  0
    5.3670    1.7714   -5.6030 C   0  0  0  0  0  0  0  0  0  0  0  0
    8.4857    1.1705   -7.6888 C   0  0  0  0  0  0  0  0  0  0  0  0
    0.3007   -1.0869   -1.0500 H   0  0  0  0  0  0  0  0  0  0  0  0
    4.5549   -0.7974   -0.0281 H   0  0  0  0  0  0  0  0  0  0  0  0
    3.8616    0.5154    0.9449 H   0  0  0  0  0  0  0  0  0  0  0  0
    3.1872    4.8533   -2.2728 H   0  0  0  0  0  0  0  0  0  0  0  0
    1.4438    7.4062    0.7144 H   0  0  0  0  0  0  0  0  0  0  0  0
    2.6186    6.9804    2.8427 H   0  0  0  0  0  0  0  0  0  0  0  0
    5.1607    4.2361    0.7286 H   0  0  0  0  0  0  0  0  0  0  0  0
    5.5426    5.6169    3.2511 H   0  0  0  0  0  0  0  0  0  0  0  0
    2.1299    4.4270    3.7235 H   0  0  0  0  0  0  0  0  0  0  0  0
    0.9916    4.8470    5.8641 H   0  0  0  0  0  0  0  0  0  0  0  0
    6.0516    5.7254    7.7422 H   0  0  0  0  0  0  0  0  0  0  0  0
    5.0040    5.7466    9.9905 H   0  0  0  0  0  0  0  0  0  0  0  0
    2.5580    6.1573   10.1911 H   0  0  0  0  0  0  0  0  0  0  0  0
    1.1273    5.7958    8.2085 H   0  0  0  0  0  0  0  0  0  0  0  0
    5.2199    3.6808   -3.6277 H   0  0  0  0  0  0  0  0  0  0  0  0
    6.1684   -0.7554   -4.8123 H   0  0  0  0  0  0  0  0  0  0  0  0
    7.2101   -0.1816   -3.4908 H   0  0  0  0  0  0  0  0  0  0  0  0
    8.5256   -0.4785   -5.5779 H   0  0  0  0  0  0  0  0  0  0  0  0
    8.5390    1.2009   -5.0267 H   0  0  0  0  0  0  0  0  0  0  0  0
    6.0949    2.3524   -7.5511 H   0  0  0  0  0  0  0  0  0  0  0  0
    7.1115    2.8916   -6.2085 H   0  0  0  0  0  0  0  0  0  0  0  0
    4.6812    1.0208   -6.0180 H   0  0  0  0  0  0  0  0  0  0  0  0
    4.7893    2.6950   -5.4966 H   0  0  0  0  0  0  0  0  0  0  0  0
    9.1111    0.2872   -7.8532 H   0  0  0  0  0  0  0  0  0  0  0  0
    9.1232    1.9828   -7.3208 H   0  0  0  0  0  0  0  0  0  0  0  0
    8.0867    1.4605   -8.6669 H   0  0  0  0  0  0  0  0  0  0  0  0
  1  2  3  0  0  0  0
  1 35  1  0  0  0  0
  2  3  1  0  0  0  0
  3  4  1  0  0  0  0
  3 36  1  0  0  0  0
  3 37  1  0  0  0  0
  4  5  1  0  0  0  0
  4 27  2  0  0  0  0
  5  6  2  0  0  0  0
  6  7  1  0  0  0  0
  6 25  1  0  0  0  0
  7  8  1  0  0  0  0
  7 38  1  0  0  0  0
  8  9  1  0  0  0  0
  8 13  2  0  0  0  0
  9 10  2  0  0  0  0
 10 11  1  0  0  0  0
 10 39  1  0  0  0  0
 11 12  2  0  0  0  0
 11 40  1  0  0  0  0
 12 13  1  0  0  0  0
 12 14  1  0  0  0  0
 13 41  1  0  0  0  0
 14 15  1  0  0  0  0
 14 42  1  0  0  0  0
 15 16  1  0  0  0  0
 15 20  2  0  0  0  0
 16 17  2  0  0  0  0
 16 43  1  0  0  0  0
 17 18  1  0  0  0  0
 17 44  1  0  0  0  0
 18 19  1  0  0  0  0
 18 24  2  0  0  0  0
 19 20  1  0  0  0  0
 19 21  2  0  0  0  0
 21 22  1  0  0  0  0
 21 45  1  0  0  0  0
 22 23  2  0  0  0  0
 22 46  1  0  0  0  0
 23 24  1  0  0  0  0
 23 47  1  0  0  0  0
 24 48  1  0  0  0  0
 25 26  2  0  0  0  0
 25 49  1  0  0  0  0
 26 27  1  0  0  0  0
 26 28  1  0  0  0  0
 28 29  1  0  0  0  0
 28 33  1  0  0  0  0
 29 30  1  0  0  0  0
 29 50  1  0  0  0  0
 29 51  1  0  0  0  0
 30 31  1  0  0  0  0
 30 52  1  0  0  0  0
 30 53  1  0  0  0  0
 31 32  1  0  0  0  0
 31 34  1  0  0  0  0
 32 33  1  0  0  0  0
 32 54  1  0  0  0  0
 32 55  1  0  0  0  0
 33 56  1  0  0  0  0
 33 57  1  0  0  0  0
 34 58  1  0  0  0  0
 34 59  1  0  0  0  0
 34 60  1  0  0  0  0
M  END
$$$$
Target_lig_998
 OpenBabel04172506223D

202212  0  0  0  0  0  0  0  0999 V2000
    2.4283    2.5062    2.2483 C   0  0  0  0  0  0  0  0  0  0  0  0
    3.9371    2.5232    2.0465 C   0  0  0  0  0  0  0  0  0  0  0  0
    4.6254    1.1637    2.2782 C   0  0  0  0  0  0  0  0  0  0  0  0
    4.3364    0.1403    1.2587 N   0  0  0  0  0  0  0  0  0  0  0  0
    4.8629    0.3633   -0.0256 C   0  0  0  0  0  0  0  0  0  0  0  0
    5.6014    1.3299   -0.2352 O   0  0  0  0  0  0  0  0  0  0  0  0
    4.3690   -0.5150   -1.2119 C   0  0  0  0  0  0  0  0  0  0  0  0
    5.1841   -1.5906   -1.8272 N   0  0  0  0  0  0  0  0  0  0  0  0
    6.4172   -1.1821   -2.3754 C   0  0  0  0  0  0  0  0  0  0  0  0
    6.7152    0.0110   -2.4442 O   0  0  0  0  0  0  0  0  0  0  0  0
    7.4352   -2.2553   -2.8508 C   0  0  0  0  0  0  0  0  0  0  0  0
    8.2972   -2.9791   -1.8961 N   0  0  0  0  0  0  0  0  0  0  0  0
    8.7521   -2.3284   -0.7574 C   0  0  0  0  0  0  0  0  0  0  0  0
    8.1197   -1.3694   -0.3006 O   0  0  0  0  0  0  0  0  0  0  0  0
    9.8919   -2.9238    0.1108 C   0  0  0  0  0  0  0  0  0  0  0  0
   11.3587   -2.8854   -0.1047 N   0  0  0  0  0  0  0  0  0  0  0  0
   11.9031   -3.2430   -1.3312 C   0  0  0  0  0  0  0  0  0  0  0  0
   11.1999   -3.3826   -2.3251 O   0  0  0  0  0  0  0  0  0  0  0  0
   13.4143   -3.4195   -1.4644 C   0  0  0  0  0  0  0  0  0  0  0  0
   13.9121   -3.9499   -2.8292 C   0  0  0  0  0  0  0  0  0  0  0  0
   13.7191   -3.0251   -4.0511 C   0  0  0  0  0  0  0  0  0  0  0  0
   14.4275   -3.6045   -5.1617 O   0  0  0  0  0  0  0  0  0  0  0  0
   14.8638   -2.8531   -6.2213 C   0  0  0  0  0  0  0  0  0  0  0  0
   14.9648   -1.4725   -6.3147 C   0  0  0  0  0  0  0  0  0  0  0  0
   15.6713   -0.8993   -7.4019 C   0  0  0  0  0  0  0  0  0  0  0  0
   16.0021   -1.6758   -8.5387 C   0  0  0  0  0  0  0  0  0  0  0  0
   15.7372   -3.0417   -8.5332 C   0  0  0  0  0  0  0  0  0  0  0  0
   15.2980   -3.6104   -7.3134 C   0  0  0  0  0  0  0  0  0  0  0  0
   15.6411   -3.9270   -9.7145 C   0  0  0  0  0  0  0  0  0  0  0  0
   15.7830   -3.6407  -11.0687 N   0  0  0  0  0  0  0  0  0  0  0  0
   14.7319   -4.3061  -11.7068 C   0  0  0  0  0  0  0  0  0  0  0  0
   14.2445   -5.1526  -10.7181 C   0  0  0  0  0  0  0  0  0  0  0  0
   15.0025   -5.0772   -9.6041 N   0  0  0  0  0  0  0  0  0  0  0  0
   13.0521   -5.8588  -10.8896 C   0  0  0  0  0  0  0  0  0  0  0  0
   12.3360   -5.7128  -12.0695 C   0  0  0  0  0  0  0  0  0  0  0  0
   12.8735   -4.9154  -13.0906 C   0  0  0  0  0  0  0  0  0  0  0  0
   14.1058   -4.2282  -12.9571 C   0  0  0  0  0  0  0  0  0  0  0  0
   11.0003   -6.1372  -12.1028 N   0  0  0  0  0  0  0  0  0  0  0  0
   16.2742    0.4324   -7.2280 C   0  0  0  0  0  0  0  0  0  0  0  0
   15.6820    1.4949   -6.6061 N   0  0  0  0  0  0  0  0  0  0  0  0
   16.6487    2.4236   -6.2944 C   0  0  0  0  0  0  0  0  0  0  0  0
   17.8043    1.9070   -6.8727 C   0  0  0  0  0  0  0  0  0  0  0  0
   17.5425    0.6937   -7.4834 N   0  0  0  0  0  0  0  0  0  0  0  0
   19.0100    2.6118   -6.7334 C   0  0  0  0  0  0  0  0  0  0  0  0
   18.9991    3.8509   -6.0868 C   0  0  0  0  0  0  0  0  0  0  0  0
   17.8133    4.3970   -5.6008 C   0  0  0  0  0  0  0  0  0  0  0  0
   16.6295    3.6393   -5.6138 C   0  0  0  0  0  0  0  0  0  0  0  0
   17.8196    5.6238   -4.9292 N   0  0  0  0  0  0  0  0  0  0  0  0
   12.1543   -2.7641    1.1305 C   0  0  0  0  0  0  0  0  0  0  0  0
   11.7670   -3.8087    2.1938 C   0  0  0  0  0  0  0  0  0  0  0  0
   12.5845   -3.6691    3.4656 C   0  0  0  0  0  0  0  0  0  0  0  0
    8.5889   -4.3851   -2.1779 C   0  0  0  0  0  0  0  0  0  0  0  0
    8.9662   -4.7313   -3.6282 C   0  0  0  0  0  0  0  0  0  0  0  0
    9.1891   -6.2299   -3.7614 C   0  0  0  0  0  0  0  0  0  0  0  0
    4.4342   -2.6860   -2.4678 C   0  0  0  0  0  0  0  0  0  0  0  0
    3.1173   -2.2811   -3.1519 C   0  0  0  0  0  0  0  0  0  0  0  0
    2.4569   -3.4651   -3.8436 C   0  0  0  0  0  0  0  0  0  0  0  0
    3.8884   -1.1804    1.7406 C   0  0  0  0  0  0  0  0  0  0  0  0
    4.9104   -1.9776    2.6098 C   0  0  0  0  0  0  0  0  0  0  0  0
    5.6888   -1.4097    3.3818 O   0  0  0  0  0  0  0  0  0  0  0  0
    4.8708   -3.3972    2.5291 N   0  0  0  0  0  0  0  0  0  0  0  0
    3.8137   -4.1902    1.8544 C   0  0  0  0  0  0  0  0  0  0  0  0
    4.0700   -4.8313    0.4771 C   0  0  0  0  0  0  0  0  0  0  0  0
    3.1934   -5.4668   -0.1144 O   0  0  0  0  0  0  0  0  0  0  0  0
    5.3174   -4.6827   -0.0923 N   0  0  0  0  0  0  0  0  0  0  0  0
    5.9409   -4.1603    3.1996 C   0  0  0  0  0  0  0  0  0  0  0  0
    5.8176   -4.2967    4.7107 C   0  0  0  0  0  0  0  0  0  0  0  0
    4.6917   -5.2011    5.2016 C   0  0  0  0  0  0  0  0  0  0  0  0
    4.7961   -5.3381    6.6429 N   0  0  0  0  0  0  0  0  0  0  0  0
    4.2932   -4.4499    7.5448 C   0  0  0  0  0  0  0  0  0  0  0  0
    4.8204   -4.6356    8.7294 N   0  0  0  0  0  0  0  0  0  0  0  0
    5.6679   -5.7131    8.5999 C   0  0  0  0  0  0  0  0  0  0  0  0
    5.6117   -6.2073    7.3105 C   0  0  0  0  0  0  0  0  0  0  0  0
    6.4157   -6.1779    9.7972 C   0  0  0  0  0  0  0  0  0  0  0  0
    7.8507   -5.8227    9.7829 N   0  0  0  0  0  0  0  0  0  0  0  0
    8.1163   -4.3576    9.7018 C   0  0  0  0  0  0  0  0  0  0  0  0
    9.5208   -3.8616   10.1715 C   0  0  0  0  0  0  0  0  0  0  0  0
    9.8203   -4.4643   11.4589 N   0  0  0  0  0  0  0  0  0  0  0  0
    9.8614   -5.9363   11.3880 C   0  0  0  0  0  0  0  0  0  0  0  0
    8.4238   -6.3759   11.0537 C   0  0  0  0  0  0  0  0  0  0  0  0
   10.3453   -3.8026   12.5560 C   0  0  0  0  0  0  0  0  0  0  0  0
    9.6924   -2.7181   13.0813 N   0  0  0  0  0  0  0  0  0  0  0  0
   10.2080   -2.1432   14.1704 C   0  0  0  0  0  0  0  0  0  0  0  0
    9.4802   -0.9233   14.6781 C   0  0  0  0  0  0  0  0  0  0  0  0
    9.4735   -0.7374   16.1874 C   0  0  0  0  0  0  0  0  0  0  0  0
   11.3477   -2.5661   14.7516 N   0  0  0  0  0  0  0  0  0  0  0  0
   12.0001   -3.6306   14.2223 C   0  0  0  0  0  0  0  0  0  0  0  0
   11.5148   -4.2828   13.1228 C   0  0  0  0  0  0  0  0  0  0  0  0
   13.1657   -3.9562   14.8793 N   0  0  0  0  0  0  0  0  0  0  0  0
   14.1102   -4.9873   14.8845 C   0  0  0  0  0  0  0  0  0  0  0  0
   14.8232   -5.0226   16.0365 N   0  0  0  0  0  0  0  0  0  0  0  0
   15.7502   -5.9888   16.2379 C   0  0  0  0  0  0  0  0  0  0  0  0
   16.1292   -6.8844   15.2699 C   0  0  0  0  0  0  0  0  0  0  0  0
   15.4699   -6.8268   14.0437 C   0  0  0  0  0  0  0  0  0  0  0  0
   14.4183   -5.8915   13.8605 C   0  0  0  0  0  0  0  0  0  0  0  0
   15.9773   -7.6506   13.0111 N   0  0  0  0  0  0  0  0  0  0  0  0
   15.2962   -8.2056   11.9074 C   0  0  0  0  0  0  0  0  0  0  0  0
   16.0850   -8.6680   10.8610 C   0  0  0  0  0  0  0  0  0  0  0  0
   15.4822   -9.1600    9.7123 C   0  0  0  0  0  0  0  0  0  0  0  0
   14.1017   -9.2077    9.6598 C   0  0  0  0  0  0  0  0  0  0  0  0
   13.3596   -8.7938   10.7831 C   0  0  0  0  0  0  0  0  0  0  0  0
   13.9474   -8.2654   11.8728 N   0  0  0  0  0  0  0  0  0  0  0  0
   11.9867   -8.9276   10.7423 C   0  0  0  0  0  0  0  0  0  0  0  0
   11.3311   -9.4251    9.6073 C   0  0  0  0  0  0  0  0  0  0  0  0
   12.0453   -9.7771    8.4710 C   0  0  0  0  0  0  0  0  0  0  0  0
   13.4353   -9.6864    8.5040 C   0  0  0  0  0  0  0  0  0  0  0  0
    2.0246    3.5163    2.1082 H   0  0  0  0  0  0  0  0  0  0  0  0
    2.1670    2.1854    3.2615 H   0  0  0  0  0  0  0  0  0  0  0  0
    1.9327    1.8465    1.5308 H   0  0  0  0  0  0  0  0  0  0  0  0
    4.3601    3.2436    2.7581 H   0  0  0  0  0  0  0  0  0  0  0  0
    4.1514    2.9145    1.0467 H   0  0  0  0  0  0  0  0  0  0  0  0
    4.3340    0.7907    3.2658 H   0  0  0  0  0  0  0  0  0  0  0  0
    5.7110    1.3203    2.2907 H   0  0  0  0  0  0  0  0  0  0  0  0
    4.1097    0.1873   -2.0166 H   0  0  0  0  0  0  0  0  0  0  0  0
    3.4191   -0.9492   -0.8950 H   0  0  0  0  0  0  0  0  0  0  0  0
    8.0898   -1.7872   -3.5965 H   0  0  0  0  0  0  0  0  0  0  0  0
    6.8873   -3.0166   -3.3998 H   0  0  0  0  0  0  0  0  0  0  0  0
    9.6172   -3.9451    0.3932 H   0  0  0  0  0  0  0  0  0  0  0  0
    9.7589   -2.3383    1.0374 H   0  0  0  0  0  0  0  0  0  0  0  0
   13.7251   -4.1550   -0.7111 H   0  0  0  0  0  0  0  0  0  0  0  0
   13.8996   -2.4637   -1.2454 H   0  0  0  0  0  0  0  0  0  0  0  0
   13.4565   -4.9269   -3.0396 H   0  0  0  0  0  0  0  0  0  0  0  0
   14.9879   -4.1535   -2.7313 H   0  0  0  0  0  0  0  0  0  0  0  0
   14.0912   -2.0279   -3.8096 H   0  0  0  0  0  0  0  0  0  0  0  0
   12.6614   -2.9711   -4.3262 H   0  0  0  0  0  0  0  0  0  0  0  0
   14.6050   -0.8439   -5.5086 H   0  0  0  0  0  0  0  0  0  0  0  0
   16.4390   -1.1902   -9.4084 H   0  0  0  0  0  0  0  0  0  0  0  0
   15.1993   -4.6960   -7.2378 H   0  0  0  0  0  0  0  0  0  0  0  0
   16.3927   -2.9269  -11.4632 H   0  0  0  0  0  0  0  0  0  0  0  0
   12.6518   -6.4235  -10.0579 H   0  0  0  0  0  0  0  0  0  0  0  0
   12.2855   -4.7956  -13.9980 H   0  0  0  0  0  0  0  0  0  0  0  0
   14.4851   -3.6041  -13.7594 H   0  0  0  0  0  0  0  0  0  0  0  0
   10.7983   -6.8558  -11.4135 H   0  0  0  0  0  0  0  0  0  0  0  0
   10.6771   -6.3737  -13.0356 H   0  0  0  0  0  0  0  0  0  0  0  0
   14.6934    1.5746   -6.4244 H   0  0  0  0  0  0  0  0  0  0  0  0
   19.9325    2.1932   -7.1248 H   0  0  0  0  0  0  0  0  0  0  0  0
   19.9351    4.4004   -5.9864 H   0  0  0  0  0  0  0  0  0  0  0  0
   15.7381    4.0183   -5.1284 H   0  0  0  0  0  0  0  0  0  0  0  0
   18.5445    6.2232   -5.3101 H   0  0  0  0  0  0  0  0  0  0  0  0
   16.9020    6.0591   -4.9780 H   0  0  0  0  0  0  0  0  0  0  0  0
   11.9769   -1.7554    1.5221 H   0  0  0  0  0  0  0  0  0  0  0  0
   13.2239   -2.8355    0.9258 H   0  0  0  0  0  0  0  0  0  0  0  0
   11.8802   -4.8197    1.7860 H   0  0  0  0  0  0  0  0  0  0  0  0
   10.7123   -3.7037    2.4750 H   0  0  0  0  0  0  0  0  0  0  0  0
   13.6465   -3.8389    3.2710 H   0  0  0  0  0  0  0  0  0  0  0  0
   12.2501   -4.4019    4.2080 H   0  0  0  0  0  0  0  0  0  0  0  0
   12.4619   -2.6721    3.9009 H   0  0  0  0  0  0  0  0  0  0  0  0
    7.6778   -4.9266   -1.9080 H   0  0  0  0  0  0  0  0  0  0  0  0
    9.3647   -4.7626   -1.5079 H   0  0  0  0  0  0  0  0  0  0  0  0
    9.8694   -4.2060   -3.9545 H   0  0  0  0  0  0  0  0  0  0  0  0
    8.1851   -4.4296   -4.3311 H   0  0  0  0  0  0  0  0  0  0  0  0
    9.9052   -6.5933   -3.0170 H   0  0  0  0  0  0  0  0  0  0  0  0
    9.5759   -6.4752   -4.7547 H   0  0  0  0  0  0  0  0  0  0  0  0
    8.2446   -6.7644   -3.6194 H   0  0  0  0  0  0  0  0  0  0  0  0
    4.1826   -3.3980   -1.6962 H   0  0  0  0  0  0  0  0  0  0  0  0
    5.0371   -3.1987   -3.2169 H   0  0  0  0  0  0  0  0  0  0  0  0
    3.2916   -1.4763   -3.8733 H   0  0  0  0  0  0  0  0  0  0  0  0
    2.4039   -1.9065   -2.4105 H   0  0  0  0  0  0  0  0  0  0  0  0
    3.0881   -3.8585   -4.6455 H   0  0  0  0  0  0  0  0  0  0  0  0
    1.5007   -3.1578   -4.2792 H   0  0  0  0  0  0  0  0  0  0  0  0
    2.2572   -4.2737   -3.1320 H   0  0  0  0  0  0  0  0  0  0  0  0
    3.6091   -1.7923    0.8896 H   0  0  0  0  0  0  0  0  0  0  0  0
    2.9928   -1.0191    2.3544 H   0  0  0  0  0  0  0  0  0  0  0  0
    2.9112   -3.5761    1.7731 H   0  0  0  0  0  0  0  0  0  0  0  0
    3.5592   -5.0131    2.5334 H   0  0  0  0  0  0  0  0  0  0  0  0
    5.8861   -3.8575    0.1163 H   0  0  0  0  0  0  0  0  0  0  0  0
    5.4088   -5.0086   -1.0506 H   0  0  0  0  0  0  0  0  0  0  0  0
    6.8847   -3.6427    2.9857 H   0  0  0  0  0  0  0  0  0  0  0  0
    6.0172   -5.1506    2.7326 H   0  0  0  0  0  0  0  0  0  0  0  0
    5.7203   -3.3075    5.1773 H   0  0  0  0  0  0  0  0  0  0  0  0
    6.7707   -4.7085    5.0752 H   0  0  0  0  0  0  0  0  0  0  0  0
    4.7512   -6.2075    4.7670 H   0  0  0  0  0  0  0  0  0  0  0  0
    3.7024   -4.7887    4.9782 H   0  0  0  0  0  0  0  0  0  0  0  0
    3.5961   -3.6666    7.2782 H   0  0  0  0  0  0  0  0  0  0  0  0
    6.1071   -7.0347    6.8202 H   0  0  0  0  0  0  0  0  0  0  0  0
    6.3172   -7.2696    9.8567 H   0  0  0  0  0  0  0  0  0  0  0  0
    5.9336   -5.7643   10.6927 H   0  0  0  0  0  0  0  0  0  0  0  0
    7.3740   -3.8134   10.2957 H   0  0  0  0  0  0  0  0  0  0  0  0
    7.9979   -4.0464    8.6556 H   0  0  0  0  0  0  0  0  0  0  0  0
    9.5643   -2.7680   10.1945 H   0  0  0  0  0  0  0  0  0  0  0  0
   10.2776   -4.1907    9.4419 H   0  0  0  0  0  0  0  0  0  0  0  0
   10.1539   -6.4024   12.3361 H   0  0  0  0  0  0  0  0  0  0  0  0
   10.5648   -6.2673   10.6141 H   0  0  0  0  0  0  0  0  0  0  0  0
    7.7964   -6.0487   11.8960 H   0  0  0  0  0  0  0  0  0  0  0  0
    8.3892   -7.4706   11.0240 H   0  0  0  0  0  0  0  0  0  0  0  0
    8.4333   -0.9806   14.3487 H   0  0  0  0  0  0  0  0  0  0  0  0
    9.9053   -0.0334   14.2000 H   0  0  0  0  0  0  0  0  0  0  0  0
    8.9099   -1.5360   16.6809 H   0  0  0  0  0  0  0  0  0  0  0  0
    8.9922    0.2142   16.4444 H   0  0  0  0  0  0  0  0  0  0  0  0
   10.4858   -0.7222   16.6005 H   0  0  0  0  0  0  0  0  0  0  0  0
   12.0247   -5.1321   12.7009 H   0  0  0  0  0  0  0  0  0  0  0  0
   13.1679   -3.4006   15.7328 H   0  0  0  0  0  0  0  0  0  0  0  0
   16.2004   -6.0145   17.2290 H   0  0  0  0  0  0  0  0  0  0  0  0
   16.9090   -7.6209   15.4527 H   0  0  0  0  0  0  0  0  0  0  0  0
   13.9144   -5.8871   12.8990 H   0  0  0  0  0  0  0  0  0  0  0  0
   16.7038   -8.2838   13.3194 H   0  0  0  0  0  0  0  0  0  0  0  0
   17.1695   -8.6249   10.9412 H   0  0  0  0  0  0  0  0  0  0  0  0
   16.1035   -9.4962    8.8875 H   0  0  0  0  0  0  0  0  0  0  0  0
   11.4178   -8.6768   11.6318 H   0  0  0  0  0  0  0  0  0  0  0  0
   10.2448   -9.5086    9.6092 H   0  0  0  0  0  0  0  0  0  0  0  0
   11.5390  -10.1254    7.5812 H   0  0  0  0  0  0  0  0  0  0  0  0
   14.0232   -9.9268    7.6204 H   0  0  0  0  0  0  0  0  0  0  0  0
  1  2  1  0  0  0  0
  1107  1  0  0  0  0
  1108  1  0  0  0  0
  1109  1  0  0  0  0
  2  3  1  0  0  0  0
  2110  1  0  0  0  0
  2111  1  0  0  0  0
  3  4  1  0  0  0  0
  3112  1  0  0  0  0
  3113  1  0  0  0  0
  4  5  1  0  0  0  0
  4 58  1  0  0  0  0
  5  6  2  0  0  0  0
  5  7  1  0  0  0  0
  7  8  1  0  0  0  0
  7114  1  0  0  0  0
  7115  1  0  0  0  0
  8  9  1  0  0  0  0
  8 55  1  0  0  0  0
  9 10  2  0  0  0  0
  9 11  1  0  0  0  0
 11 12  1  0  0  0  0
 11116  1  0  0  0  0
 11117  1  0  0  0  0
 12 13  1  0  0  0  0
 12 52  1  0  0  0  0
 13 14  2  0  0  0  0
 13 15  1  0  0  0  0
 15 16  1  0  0  0  0
 15118  1  0  0  0  0
 15119  1  0  0  0  0
 16 17  1  0  0  0  0
 16 49  1  0  0  0  0
 17 18  2  0  0  0  0
 17 19  1  0  0  0  0
 19 20  1  0  0  0  0
 19120  1  0  0  0  0
 19121  1  0  0  0  0
 20 21  1  0  0  0  0
 20122  1  0  0  0  0
 20123  1  0  0  0  0
 21 22  1  0  0  0  0
 21124  1  0  0  0  0
 21125  1  0  0  0  0
 22 23  1  0  0  0  0
 23 24  1  0  0  0  0
 23 28  2  0  0  0  0
 24 25  2  0  0  0  0
 24126  1  0  0  0  0
 25 26  1  0  0  0  0
 25 39  1  0  0  0  0
 26 27  2  0  0  0  0
 26127  1  0  0  0  0
 27 28  1  0  0  0  0
 27 29  1  0  0  0  0
 28128  1  0  0  0  0
 29 30  1  0  0  0  0
 29 33  2  0  0  0  0
 30 31  1  0  0  0  0
 30129  1  0  0  0  0
 31 32  1  0  0  0  0
 31 37  2  0  0  0  0
 32 33  1  0  0  0  0
 32 34  2  0  0  0  0
 34 35  1  0  0  0  0
 34130  1  0  0  0  0
 35 36  2  0  0  0  0
 35 38  1  0  0  0  0
 36 37  1  0  0  0  0
 36131  1  0  0  0  0
 37132  1  0  0  0  0
 38133  1  0  0  0  0
 38134  1  0  0  0  0
 39 40  1  0  0  0  0
 39 43  2  0  0  0  0
 40 41  1  0  0  0  0
 40135  1  0  0  0  0
 41 42  1  0  0  0  0
 41 47  2  0  0  0  0
 42 43  1  0  0  0  0
 42 44  2  0  0  0  0
 44 45  1  0  0  0  0
 44136  1  0  0  0  0
 45 46  2  0  0  0  0
 45137  1  0  0  0  0
 46 47  1  0  0  0  0
 46 48  1  0  0  0  0
 47138  1  0  0  0  0
 48139  1  0  0  0  0
 48140  1  0  0  0  0
 49 50  1  0  0  0  0
 49141  1  0  0  0  0
 49142  1  0  0  0  0
 50 51  1  0  0  0  0
 50143  1  0  0  0  0
 50144  1  0  0  0  0
 51145  1  0  0  0  0
 51146  1  0  0  0  0
 51147  1  0  0  0  0
 52 53  1  0  0  0  0
 52148  1  0  0  0  0
 52149  1  0  0  0  0
 53 54  1  0  0  0  0
 53150  1  0  0  0  0
 53151  1  0  0  0  0
 54152  1  0  0  0  0
 54153  1  0  0  0  0
 54154  1  0  0  0  0
 55 56  1  0  0  0  0
 55155  1  0  0  0  0
 55156  1  0  0  0  0
 56 57  1  0  0  0  0
 56157  1  0  0  0  0
 56158  1  0  0  0  0
 57159  1  0  0  0  0
 57160  1  0  0  0  0
 57161  1  0  0  0  0
 58 59  1  0  0  0  0
 58162  1  0  0  0  0
 58163  1  0  0  0  0
 59 60  2  0  0  0  0
 59 61  1  0  0  0  0
 61 62  1  0  0  0  0
 61 66  1  0  0  0  0
 62 63  1  0  0  0  0
 62164  1  0  0  0  0
 62165  1  0  0  0  0
 63 64  2  0  0  0  0
 63 65  1  0  0  0  0
 65166  1  0  0  0  0
 65167  1  0  0  0  0
 66 67  1  0  0  0  0
 66168  1  0  0  0  0
 66169  1  0  0  0  0
 67 68  1  0  0  0  0
 67170  1  0  0  0  0
 67171  1  0  0  0  0
 68 69  1  0  0  0  0
 68172  1  0  0  0  0
 68173  1  0  0  0  0
 69 70  1  0  0  0  0
 69 73  1  0  0  0  0
 70 71  2  0  0  0  0
 70174  1  0  0  0  0
 71 72  1  0  0  0  0
 72 73  2  0  0  0  0
 72 74  1  0  0  0  0
 73175  1  0  0  0  0
 74 75  1  0  0  0  0
 74176  1  0  0  0  0
 74177  1  0  0  0  0
 75 76  1  0  0  0  0
 75 80  1  0  0  0  0
 76 77  1  0  0  0  0
 76178  1  0  0  0  0
 76179  1  0  0  0  0
 77 78  1  0  0  0  0
 77180  1  0  0  0  0
 77181  1  0  0  0  0
 78 79  1  0  0  0  0
 78 81  1  0  0  0  0
 79 80  1  0  0  0  0
 79182  1  0  0  0  0
 79183  1  0  0  0  0
 80184  1  0  0  0  0
 80185  1  0  0  0  0
 81 82  1  0  0  0  0
 81 88  2  0  0  0  0
 82 83  2  0  0  0  0
 83 84  1  0  0  0  0
 83 86  1  0  0  0  0
 84 85  1  0  0  0  0
 84186  1  0  0  0  0
 84187  1  0  0  0  0
 85188  1  0  0  0  0
 85189  1  0  0  0  0
 85190  1  0  0  0  0
 86 87  2  0  0  0  0
 87 88  1  0  0  0  0
 87 89  1  0  0  0  0
 88191  1  0  0  0  0
 89 90  1  0  0  0  0
 89192  1  0  0  0  0
 90 91  1  0  0  0  0
 90 95  2  0  0  0  0
 91 92  2  0  0  0  0
 92 93  1  0  0  0  0
 92193  1  0  0  0  0
 93 94  2  0  0  0  0
 93194  1  0  0  0  0
 94 95  1  0  0  0  0
 94 96  1  0  0  0  0
 95195  1  0  0  0  0
 96 97  1  0  0  0  0
 96196  1  0  0  0  0
 97 98  1  0  0  0  0
 97102  2  0  0  0  0
 98 99  2  0  0  0  0
 98197  1  0  0  0  0
 99100  1  0  0  0  0
 99198  1  0  0  0  0
100101  1  0  0  0  0
100106  2  0  0  0  0
101102  1  0  0  0  0
101103  2  0  0  0  0
103104  1  0  0  0  0
103199  1  0  0  0  0
104105  2  0  0  0  0
104200  1  0  0  0  0
105106  1  0  0  0  0
105201  1  0  0  0  0
106202  1  0  0  0  0
M  END
$$$$
Target_lig_1008
 OpenBabel04172506223D

 78 82  0  0  0  0  0  0  0  0999 V2000
    7.4472  -10.9655   -7.2450 N   0  0  0  0  0  0  0  0  0  0  0  0
    8.5572  -11.0569   -6.7052 N   0  3  0  0  0  0  0  0  0  0  0  0
    9.6722  -11.1687   -6.1753 N   0  0  0  0  0  0  0  0  0  0  0  0
   10.6964  -10.2333   -6.6535 C   0  0  0  0  0  0  0  0  0  0  0  0
   11.9985  -10.4896   -5.8933 C   0  0  0  0  0  0  0  0  0  0  0  0
   13.1561   -9.6134   -6.3778 C   0  0  0  0  0  0  0  0  0  0  0  0
   12.9562   -8.1952   -6.1441 N   0  0  0  0  0  0  0  0  0  0  0  0
   13.2352   -7.6063   -4.9346 C   0  0  0  0  0  0  0  0  0  0  0  0
   13.6992   -8.2142   -3.9748 O   0  0  0  0  0  0  0  0  0  0  0  0
   12.8971   -6.1265   -4.8607 C   0  0  0  0  0  0  0  0  0  0  0  0
   13.5971   -5.3001   -5.9418 C   0  0  0  0  0  0  0  0  0  0  0  0
   13.3605   -3.7958   -5.7754 C   0  0  0  0  0  0  0  0  0  0  0  0
   13.8316   -3.2915   -4.5247 O   0  0  0  0  0  0  0  0  0  0  0  0
   15.1819   -3.2625   -4.3138 C   0  0  0  0  0  0  0  0  0  0  0  0
   16.1689   -3.2387   -5.3016 C   0  0  0  0  0  0  0  0  0  0  0  0
   17.5276   -3.2722   -4.9443 C   0  0  0  0  0  0  0  0  0  0  0  0
   17.9177   -3.3193   -3.6008 C   0  0  0  0  0  0  0  0  0  0  0  0
   16.9156   -3.2877   -2.6186 C   0  0  0  0  0  0  0  0  0  0  0  0
   15.5641   -3.2540   -2.9732 C   0  0  0  0  0  0  0  0  0  0  0  0
   19.3323   -3.4497   -3.2293 C   0  0  0  0  0  0  0  0  0  0  0  0
   20.4038   -3.0040   -3.8699 N   0  0  0  0  0  0  0  0  0  0  0  0
   21.4944   -3.4410   -3.1438 C   0  0  0  0  0  0  0  0  0  0  0  0
   21.0827   -4.1648   -2.0378 C   0  0  0  0  0  0  0  0  0  0  0  0
   19.7191   -4.1580   -2.1142 N   0  0  0  0  0  0  0  0  0  0  0  0
   21.9552   -4.7493   -1.1325 C   0  0  0  0  0  0  0  0  0  0  0  0
   23.3231   -4.6258   -1.4039 C   0  0  0  0  0  0  0  0  0  0  0  0
   23.8251   -3.9245   -2.5180 C   0  0  0  0  0  0  0  0  0  0  0  0
   22.8806   -3.2935   -3.3694 C   0  0  0  0  0  0  0  0  0  0  0  0
   25.2882   -3.9494   -2.8176 C   0  0  0  0  0  0  0  0  0  0  0  0
   25.7698   -3.8095   -4.1245 C   0  0  0  0  0  0  0  0  0  0  0  0
   27.1304   -3.9659   -4.4298 C   0  0  0  0  0  0  0  0  0  0  0  0
   28.0874   -4.2746   -3.4565 C   0  0  0  0  0  0  0  0  0  0  0  0
   27.6253   -4.3702   -2.1443 C   0  0  0  0  0  0  0  0  0  0  0  0
   26.2615   -4.2025   -1.8310 C   0  0  0  0  0  0  0  0  0  0  0  0
   29.4134   -4.4123   -3.8168 N   0  0  0  0  0  0  0  0  0  0  0  0
   30.5164   -4.2252   -2.8640 C   0  0  0  0  0  0  0  0  0  0  0  0
   31.7541   -3.6863   -3.6310 C   0  0  0  0  0  0  0  0  0  0  0  0
   32.1625   -4.5555   -4.7620 N   0  0  0  0  0  0  0  0  0  0  0  0
   31.0051   -4.7532   -5.6672 C   0  0  0  0  0  0  0  0  0  0  0  0
   29.7640   -5.3110   -4.9333 C   0  0  0  0  0  0  0  0  0  0  0  0
   33.2800   -3.9603   -5.4913 C   0  0  0  0  0  0  0  0  0  0  0  0
    7.0579  -11.8998   -7.3922 H   0  0  0  0  0  0  0  0  0  0  0  0
   10.3644   -9.2013   -6.4908 H   0  0  0  0  0  0  0  0  0  0  0  0
   10.8591  -10.3767   -7.7284 H   0  0  0  0  0  0  0  0  0  0  0  0
   12.2848  -11.5416   -6.0228 H   0  0  0  0  0  0  0  0  0  0  0  0
   11.8349  -10.3426   -4.8187 H   0  0  0  0  0  0  0  0  0  0  0  0
   13.3152   -9.7450   -7.4530 H   0  0  0  0  0  0  0  0  0  0  0  0
   14.0759   -9.9190   -5.8656 H   0  0  0  0  0  0  0  0  0  0  0  0
   12.5260   -7.6411   -6.8712 H   0  0  0  0  0  0  0  0  0  0  0  0
   13.1930   -5.7739   -3.8656 H   0  0  0  0  0  0  0  0  0  0  0  0
   11.8092   -6.0181   -4.9347 H   0  0  0  0  0  0  0  0  0  0  0  0
   13.2417   -5.5946   -6.9355 H   0  0  0  0  0  0  0  0  0  0  0  0
   14.6690   -5.5249   -5.9164 H   0  0  0  0  0  0  0  0  0  0  0  0
   12.2797   -3.6068   -5.7982 H   0  0  0  0  0  0  0  0  0  0  0  0
   13.7747   -3.2229   -6.6125 H   0  0  0  0  0  0  0  0  0  0  0  0
   15.9210   -3.2049   -6.3541 H   0  0  0  0  0  0  0  0  0  0  0  0
   18.2848   -3.2810   -5.7272 H   0  0  0  0  0  0  0  0  0  0  0  0
   17.1705   -3.2880   -1.5621 H   0  0  0  0  0  0  0  0  0  0  0  0
   14.8012   -3.2510   -2.1965 H   0  0  0  0  0  0  0  0  0  0  0  0
   19.0950   -4.6458   -1.4902 H   0  0  0  0  0  0  0  0  0  0  0  0
   21.6031   -5.3159   -0.2774 H   0  0  0  0  0  0  0  0  0  0  0  0
   23.9964   -5.1436   -0.7271 H   0  0  0  0  0  0  0  0  0  0  0  0
   23.1896   -2.7092   -4.2311 H   0  0  0  0  0  0  0  0  0  0  0  0
   25.0978   -3.6014   -4.9520 H   0  0  0  0  0  0  0  0  0  0  0  0
   27.4393   -3.8170   -5.4609 H   0  0  0  0  0  0  0  0  0  0  0  0
   28.3088   -4.6124   -1.3346 H   0  0  0  0  0  0  0  0  0  0  0  0
   25.9842   -4.2948   -0.7833 H   0  0  0  0  0  0  0  0  0  0  0  0
   30.7613   -5.1747   -2.3712 H   0  0  0  0  0  0  0  0  0  0  0  0
   30.2577   -3.4948   -2.0892 H   0  0  0  0  0  0  0  0  0  0  0  0
   32.5864   -3.5882   -2.9243 H   0  0  0  0  0  0  0  0  0  0  0  0
   31.5173   -2.6792   -4.0022 H   0  0  0  0  0  0  0  0  0  0  0  0
   31.2793   -5.4521   -6.4661 H   0  0  0  0  0  0  0  0  0  0  0  0
   30.7294   -3.8012   -6.1421 H   0  0  0  0  0  0  0  0  0  0  0  0
   29.9821   -6.3140   -4.5421 H   0  0  0  0  0  0  0  0  0  0  0  0
   28.9537   -5.4257   -5.6608 H   0  0  0  0  0  0  0  0  0  0  0  0
   34.1471   -3.8411   -4.8331 H   0  0  0  0  0  0  0  0  0  0  0  0
   33.0294   -2.9799   -5.9129 H   0  0  0  0  0  0  0  0  0  0  0  0
   33.5938   -4.6160   -6.3112 H   0  0  0  0  0  0  0  0  0  0  0  0
  1  2  2  0  0  0  0
  1 42  1  0  0  0  0
  2  3  2  0  0  0  0
  3  4  1  0  0  0  0
  4  5  1  0  0  0  0
  4 43  1  0  0  0  0
  4 44  1  0  0  0  0
  5  6  1  0  0  0  0
  5 45  1  0  0  0  0
  5 46  1  0  0  0  0
  6  7  1  0  0  0  0
  6 47  1  0  0  0  0
  6 48  1  0  0  0  0
  7  8  1  0  0  0  0
  7 49  1  0  0  0  0
  8  9  2  0  0  0  0
  8 10  1  0  0  0  0
 10 11  1  0  0  0  0
 10 50  1  0  0  0  0
 10 51  1  0  0  0  0
 11 12  1  0  0  0  0
 11 52  1  0  0  0  0
 11 53  1  0  0  0  0
 12 13  1  0  0  0  0
 12 54  1  0  0  0  0
 12 55  1  0  0  0  0
 13 14  1  0  0  0  0
 14 15  1  0  0  0  0
 14 19  2  0  0  0  0
 15 16  2  0  0  0  0
 15 56  1  0  0  0  0
 16 17  1  0  0  0  0
 16 57  1  0  0  0  0
 17 18  2  0  0  0  0
 17 20  1  0  0  0  0
 18 19  1  0  0  0  0
 18 58  1  0  0  0  0
 19 59  1  0  0  0  0
 20 21  2  0  0  0  0
 20 24  1  0  0  0  0
 21 22  1  0  0  0  0
 22 23  1  0  0  0  0
 22 28  2  0  0  0  0
 23 24  1  0  0  0  0
 23 25  2  0  0  0  0
 24 60  1  0  0  0  0
 25 26  1  0  0  0  0
 25 61  1  0  0  0  0
 26 27  2  0  0  0  0
 26 62  1  0  0  0  0
 27 28  1  0  0  0  0
 27 29  1  0  0  0  0
 28 63  1  0  0  0  0
 29 30  1  0  0  0  0
 29 34  2  0  0  0  0
 30 31  2  0  0  0  0
 30 64  1  0  0  0  0
 31 32  1  0  0  0  0
 31 65  1  0  0  0  0
 32 33  2  0  0  0  0
 32 35  1  0  0  0  0
 33 34  1  0  0  0  0
 33 66  1  0  0  0  0
 34 67  1  0  0  0  0
 35 36  1  0  0  0  0
 35 40  1  0  0  0  0
 36 37  1  0  0  0  0
 36 68  1  0  0  0  0
 36 69  1  0  0  0  0
 37 38  1  0  0  0  0
 37 70  1  0  0  0  0
 37 71  1  0  0  0  0
 38 39  1  0  0  0  0
 38 41  1  0  0  0  0
 39 40  1  0  0  0  0
 39 72  1  0  0  0  0
 39 73  1  0  0  0  0
 40 74  1  0  0  0  0
 40 75  1  0  0  0  0
 41 76  1  0  0  0  0
 41 77  1  0  0  0  0
 41 78  1  0  0  0  0
M  CHG  1   2   1
M  END
$$$$
Target_lig_1009
 OpenBabel04172506223D

227238  0  0  0  0  0  0  0  0999 V2000
    2.3582    2.1331   -1.4987 C   0  0  0  0  0  0  0  0  0  0  0  0
    2.0881    0.8046   -0.8030 C   0  0  0  0  0  0  0  0  0  0  0  0
    2.8534   -0.3870   -1.4019 C   0  0  0  0  0  0  0  0  0  0  0  0
    4.3078   -0.2991   -1.2384 N   0  0  0  0  0  0  0  0  0  0  0  0
    4.8223   -0.6761    0.0232 C   0  0  0  0  0  0  0  0  0  0  0  0
    4.1760   -1.3384    0.8333 O   0  0  0  0  0  0  0  0  0  0  0  0
    6.2753   -0.2186    0.2781 C   0  0  0  0  0  0  0  0  0  0  0  0
    6.8939   -0.2119    1.6099 N   0  0  0  0  0  0  0  0  0  0  0  0
    6.5670    0.6304    2.6669 C   0  0  0  0  0  0  0  0  0  0  0  0
    7.3612    0.8378    3.5942 O   0  0  0  0  0  0  0  0  0  0  0  0
    5.3466    1.2551    2.6939 N   0  0  0  0  0  0  0  0  0  0  0  0
    5.0014    1.9150    3.9315 C   0  0  0  0  0  0  0  0  0  0  0  0
    3.6599    2.5168    3.8261 C   0  0  0  0  0  0  0  0  0  0  0  0
    2.5412    1.7482    3.6420 N   0  0  0  0  0  0  0  0  0  0  0  0
    1.4982    2.5613    3.5205 N   0  0  0  0  0  0  0  0  0  0  0  0
    1.9477    3.8220    3.6290 N   0  0  0  0  0  0  0  0  0  0  0  0
    3.2922    3.8393    3.8664 C   0  0  0  0  0  0  0  0  0  0  0  0
    1.1519    4.9329    3.1639 C   0  0  0  0  0  0  0  0  0  0  0  0
   -0.2284    5.1018    3.8008 C   0  0  0  0  0  0  0  0  0  0  0  0
   -0.9603    6.2394    3.0838 C   0  0  0  0  0  0  0  0  0  0  0  0
   -2.2862    6.5023    3.6034 N   0  0  0  0  0  0  0  0  0  0  0  0
   -2.5123    7.3208    4.6909 C   0  0  0  0  0  0  0  0  0  0  0  0
   -1.6138    7.8901    5.2995 O   0  0  0  0  0  0  0  0  0  0  0  0
   -3.9751    7.4361    5.0822 C   0  0  0  0  0  0  0  0  0  0  0  0
   -4.3262    8.8028    5.6801 C   0  0  0  0  0  0  0  0  0  0  0  0
   -4.1089    9.9479    4.6820 C   0  0  0  0  0  0  0  0  0  0  0  0
   -4.5077   11.2010    5.2698 O   0  0  0  0  0  0  0  0  0  0  0  0
   -4.4422   12.3004    4.4436 C   0  0  0  0  0  0  0  0  0  0  0  0
   -3.9257   12.2918    3.1575 C   0  0  0  0  0  0  0  0  0  0  0  0
   -3.9215   13.4664    2.3925 C   0  0  0  0  0  0  0  0  0  0  0  0
   -4.3785   14.7175    2.8847 C   0  0  0  0  0  0  0  0  0  0  0  0
   -4.8965   14.7171    4.1784 C   0  0  0  0  0  0  0  0  0  0  0  0
   -4.9212   13.5233    4.9491 C   0  0  0  0  0  0  0  0  0  0  0  0
   -4.1455   15.9361    2.0640 C   0  0  0  0  0  0  0  0  0  0  0  0
   -4.6719   17.1714    2.0033 N   0  0  0  0  0  0  0  0  0  0  0  0
   -3.9078   17.8720    1.0391 C   0  0  0  0  0  0  0  0  0  0  0  0
   -3.1280   16.9392    0.3596 C   0  0  0  0  0  0  0  0  0  0  0  0
   -3.0711   15.8942    1.2168 N   0  0  0  0  0  0  0  0  0  0  0  0
   -2.2983   17.2738   -0.6911 C   0  0  0  0  0  0  0  0  0  0  0  0
   -1.6214   18.3627   -0.1848 C   0  0  0  0  0  0  0  0  0  0  0  0
   -2.3783   19.5118    0.0743 C   0  0  0  0  0  0  0  0  0  0  0  0
   -3.6579   19.2512    0.6770 C   0  0  0  0  0  0  0  0  0  0  0  0
   -1.6756   20.7735   -0.3526 C   0  0  0  0  0  0  0  0  0  0  0  0
   -2.2777   21.8269   -1.0329 C   0  0  0  0  0  0  0  0  0  0  0  0
   -1.4986   22.7501   -1.8018 C   0  0  0  0  0  0  0  0  0  0  0  0
   -0.0908   22.6946   -1.9371 C   0  0  0  0  0  0  0  0  0  0  0  0
    0.5074   21.7141   -1.1378 C   0  0  0  0  0  0  0  0  0  0  0  0
   -0.2570   20.8031   -0.3649 C   0  0  0  0  0  0  0  0  0  0  0  0
    0.6266   23.4743   -2.8579 N   0  0  0  0  0  0  0  0  0  0  0  0
    0.1589   24.8366   -3.2049 C   0  0  0  0  0  0  0  0  0  0  0  0
    0.5082   25.1608   -4.6749 C   0  0  0  0  0  0  0  0  0  0  0  0
    1.9498   25.0198   -4.9435 N   0  0  0  0  0  0  0  0  0  0  0  0
    2.3914   23.6545   -4.6016 C   0  0  0  0  0  0  0  0  0  0  0  0
    2.0657   23.2793   -3.1284 C   0  0  0  0  0  0  0  0  0  0  0  0
    2.2398   25.3437   -6.3512 C   0  0  0  0  0  0  0  0  0  0  0  0
    8.2461   -0.7999    1.6497 C   0  0  0  0  0  0  0  0  0  0  0  0
    8.2631   -2.2527    2.1254 C   0  0  0  0  0  0  0  0  0  0  0  0
    7.8357   -2.4020    3.5765 C   0  0  0  0  0  0  0  0  0  0  0  0
    5.1277   -0.6680   -2.4076 C   0  0  0  0  0  0  0  0  0  0  0  0
    4.9794    0.0730   -3.7524 C   0  0  0  0  0  0  0  0  0  0  0  0
    4.2214    1.0364   -3.8981 O   0  0  0  0  0  0  0  0  0  0  0  0
    5.7462   -0.4283   -4.8328 N   0  0  0  0  0  0  0  0  0  0  0  0
    6.6083   -1.6522   -4.7597 C   0  0  0  0  0  0  0  0  0  0  0  0
    7.9826   -1.5244   -4.0144 C   0  0  0  0  0  0  0  0  0  0  0  0
    8.2681   -0.5339   -3.3676 O   0  0  0  0  0  0  0  0  0  0  0  0
    8.8799   -2.6220   -4.0820 N   0  0  0  0  0  0  0  0  0  0  0  0
    8.6857   -3.8438   -4.8805 C   0  0  0  0  0  0  0  0  0  0  0  0
    8.1900   -5.0416   -4.1162 C   0  0  0  0  0  0  0  0  0  0  0  0
    8.9551   -6.1931   -4.0742 N   0  0  0  0  0  0  0  0  0  0  0  0
    8.2507   -7.1491   -3.4840 N   0  0  0  0  0  0  0  0  0  0  0  0
    7.0997   -6.5964   -3.0756 N   0  0  0  0  0  0  0  0  0  0  0  0
    6.9763   -5.3108   -3.5093 C   0  0  0  0  0  0  0  0  0  0  0  0
    6.1012   -7.3187   -2.3101 C   0  0  0  0  0  0  0  0  0  0  0  0
    6.5022   -8.6941   -1.7851 C   0  0  0  0  0  0  0  0  0  0  0  0
    7.7008   -8.6480   -0.8488 C   0  0  0  0  0  0  0  0  0  0  0  0
    8.0118   -9.9872   -0.3846 N   0  0  0  0  0  0  0  0  0  0  0  0
    7.6688  -10.4760    0.8505 C   0  0  0  0  0  0  0  0  0  0  0  0
    7.1080   -9.8329    1.7371 O   0  0  0  0  0  0  0  0  0  0  0  0
    8.0796  -11.9172    1.0319 C   0  0  0  0  0  0  0  0  0  0  0  0
    7.0375  -12.6888    1.8427 C   0  0  0  0  0  0  0  0  0  0  0  0
    5.7080  -12.8524    1.0870 C   0  0  0  0  0  0  0  0  0  0  0  0
    4.7511  -13.4885    1.9402 O   0  0  0  0  0  0  0  0  0  0  0  0
    3.5283  -13.7468    1.3662 C   0  0  0  0  0  0  0  0  0  0  0  0
    3.3143  -13.8515    0.0009 C   0  0  0  0  0  0  0  0  0  0  0  0
    2.0312  -14.1227   -0.4825 C   0  0  0  0  0  0  0  0  0  0  0  0
    0.8977  -14.2626    0.3532 C   0  0  0  0  0  0  0  0  0  0  0  0
    1.1258  -14.1920    1.7241 C   0  0  0  0  0  0  0  0  0  0  0  0
    2.4336  -13.9439    2.2231 C   0  0  0  0  0  0  0  0  0  0  0  0
   -0.4327  -14.3424   -0.2919 C   0  0  0  0  0  0  0  0  0  0  0  0
   -1.6531  -14.7683    0.0601 N   0  0  0  0  0  0  0  0  0  0  0  0
   -2.5054  -14.4601   -1.0309 C   0  0  0  0  0  0  0  0  0  0  0  0
   -1.6847  -14.1559   -2.1158 C   0  0  0  0  0  0  0  0  0  0  0  0
   -0.5483  -13.7441   -1.5213 N   0  0  0  0  0  0  0  0  0  0  0  0
   -2.1925  -13.8536   -3.3599 C   0  0  0  0  0  0  0  0  0  0  0  0
   -3.1495  -12.9136   -3.0486 C   0  0  0  0  0  0  0  0  0  0  0  0
   -4.2581  -13.3807   -2.3364 C   0  0  0  0  0  0  0  0  0  0  0  0
   -3.9244  -14.2787   -1.2659 C   0  0  0  0  0  0  0  0  0  0  0  0
   -5.5548  -12.8447   -2.8694 C   0  0  0  0  0  0  0  0  0  0  0  0
   -6.6991  -13.6051   -3.0841 C   0  0  0  0  0  0  0  0  0  0  0  0
   -7.7180  -13.1590   -3.9878 C   0  0  0  0  0  0  0  0  0  0  0  0
   -7.6708  -11.9435   -4.7294 C   0  0  0  0  0  0  0  0  0  0  0  0
   -6.5742  -11.1408   -4.4007 C   0  0  0  0  0  0  0  0  0  0  0  0
   -5.5702  -11.5682   -3.4906 C   0  0  0  0  0  0  0  0  0  0  0  0
   -8.5769  -11.6391   -5.7522 N   0  0  0  0  0  0  0  0  0  0  0  0
  -10.0012  -12.0480   -5.6756 C   0  0  0  0  0  0  0  0  0  0  0  0
  -10.5535  -12.4125   -7.0735 C   0  0  0  0  0  0  0  0  0  0  0  0
  -10.4393  -11.2955   -8.0319 N   0  0  0  0  0  0  0  0  0  0  0  0
   -9.0166  -10.8958   -8.1052 C   0  0  0  0  0  0  0  0  0  0  0  0
   -8.3968  -10.5226   -6.7177 C   0  0  0  0  0  0  0  0  0  0  0  0
  -10.9540  -11.6869   -9.3435 C   0  0  0  0  0  0  0  0  0  0  0  0
   10.1391   -2.4355   -3.3348 C   0  0  0  0  0  0  0  0  0  0  0  0
   11.1408   -3.5458   -3.4390 C   0  0  0  0  0  0  0  0  0  0  0  0
   11.9263   -3.6308   -4.3711 O   0  0  0  0  0  0  0  0  0  0  0  0
   10.9648   -4.5092   -2.5047 N   0  0  0  0  0  0  0  0  0  0  0  0
    5.4518    0.1223   -6.1669 C   0  0  0  0  0  0  0  0  0  0  0  0
    6.4536    1.1644   -6.6616 C   0  0  0  0  0  0  0  0  0  0  0  0
    6.5064    2.4418   -5.8351 C   0  0  0  0  0  0  0  0  0  0  0  0
    1.7184    2.9160   -1.0756 H   0  0  0  0  0  0  0  0  0  0  0  0
    2.1362    2.0738   -2.5689 H   0  0  0  0  0  0  0  0  0  0  0  0
    3.3982    2.4483   -1.3727 H   0  0  0  0  0  0  0  0  0  0  0  0
    1.0141    0.5965   -0.8887 H   0  0  0  0  0  0  0  0  0  0  0  0
    2.3075    0.9102    0.2652 H   0  0  0  0  0  0  0  0  0  0  0  0
    2.6078   -0.4689   -2.4657 H   0  0  0  0  0  0  0  0  0  0  0  0
    2.4992   -1.3089   -0.9259 H   0  0  0  0  0  0  0  0  0  0  0  0
    6.4414    0.7670   -0.1691 H   0  0  0  0  0  0  0  0  0  0  0  0
    6.8508   -0.9593   -0.2923 H   0  0  0  0  0  0  0  0  0  0  0  0
    4.5650    0.7561    2.3064 H   0  0  0  0  0  0  0  0  0  0  0  0
    5.7568    2.6803    4.1423 H   0  0  0  0  0  0  0  0  0  0  0  0
    5.0228    1.1778    4.7416 H   0  0  0  0  0  0  0  0  0  0  0  0
    3.8562    4.7536    3.9728 H   0  0  0  0  0  0  0  0  0  0  0  0
    1.0527    4.7887    2.0813 H   0  0  0  0  0  0  0  0  0  0  0  0
    1.7419    5.8438    3.3215 H   0  0  0  0  0  0  0  0  0  0  0  0
   -0.1299    5.3180    4.8714 H   0  0  0  0  0  0  0  0  0  0  0  0
   -0.8120    4.1767    3.7209 H   0  0  0  0  0  0  0  0  0  0  0  0
   -1.0848    5.9950    2.0230 H   0  0  0  0  0  0  0  0  0  0  0  0
   -0.3743    7.1636    3.1474 H   0  0  0  0  0  0  0  0  0  0  0  0
   -3.0822    6.0891    3.1363 H   0  0  0  0  0  0  0  0  0  0  0  0
   -4.1700    6.6507    5.8234 H   0  0  0  0  0  0  0  0  0  0  0  0
   -4.6151    7.2338    4.2163 H   0  0  0  0  0  0  0  0  0  0  0  0
   -3.7421    8.9877    6.5898 H   0  0  0  0  0  0  0  0  0  0  0  0
   -5.3771    8.7942    5.9964 H   0  0  0  0  0  0  0  0  0  0  0  0
   -4.7102    9.7476    3.7876 H   0  0  0  0  0  0  0  0  0  0  0  0
   -3.0461    9.9958    4.4180 H   0  0  0  0  0  0  0  0  0  0  0  0
   -3.4927   11.4055    2.7049 H   0  0  0  0  0  0  0  0  0  0  0  0
   -3.5073   13.3727    1.3903 H   0  0  0  0  0  0  0  0  0  0  0  0
   -5.2398   15.6467    4.6267 H   0  0  0  0  0  0  0  0  0  0  0  0
   -5.2982   13.5728    5.9679 H   0  0  0  0  0  0  0  0  0  0  0  0
   -2.3472   15.1935    1.2194 H   0  0  0  0  0  0  0  0  0  0  0  0
   -2.8416   17.5477   -1.6161 H   0  0  0  0  0  0  0  0  0  0  0  0
   -0.8902   18.1556    0.6178 H   0  0  0  0  0  0  0  0  0  0  0  0
   -4.3206   20.0405    1.0144 H   0  0  0  0  0  0  0  0  0  0  0  0
   -3.3644   21.8983   -1.0755 H   0  0  0  0  0  0  0  0  0  0  0  0
   -2.0746   23.4724   -2.3770 H   0  0  0  0  0  0  0  0  0  0  0  0
    1.5818   21.5915   -1.1273 H   0  0  0  0  0  0  0  0  0  0  0  0
    0.3016   20.0278    0.1639 H   0  0  0  0  0  0  0  0  0  0  0  0
    0.6510   25.5585   -2.5417 H   0  0  0  0  0  0  0  0  0  0  0  0
   -0.9130   24.9690   -3.0883 H   0  0  0  0  0  0  0  0  0  0  0  0
    0.1963   26.1911   -4.8799 H   0  0  0  0  0  0  0  0  0  0  0  0
   -0.0685   24.5018   -5.3376 H   0  0  0  0  0  0  0  0  0  0  0  0
    3.4756   23.5783   -4.7563 H   0  0  0  0  0  0  0  0  0  0  0  0
    1.9161   22.9256   -5.2718 H   0  0  0  0  0  0  0  0  0  0  0  0
    2.6617   23.9129   -2.4555 H   0  0  0  0  0  0  0  0  0  0  0  0
    2.3916   22.2415   -2.9878 H   0  0  0  0  0  0  0  0  0  0  0  0
    1.9384   26.3735   -6.5795 H   0  0  0  0  0  0  0  0  0  0  0  0
    1.7171   24.6770   -7.0479 H   0  0  0  0  0  0  0  0  0  0  0  0
    3.3142   25.2803   -6.5561 H   0  0  0  0  0  0  0  0  0  0  0  0
    8.9140   -0.2009    2.2795 H   0  0  0  0  0  0  0  0  0  0  0  0
    8.6878   -0.7466    0.6463 H   0  0  0  0  0  0  0  0  0  0  0  0
    9.2828   -2.6414    2.0225 H   0  0  0  0  0  0  0  0  0  0  0  0
    7.6192   -2.8703    1.4880 H   0  0  0  0  0  0  0  0  0  0  0  0
    8.4704   -1.8000    4.2346 H   0  0  0  0  0  0  0  0  0  0  0  0
    7.9186   -3.4477    3.8909 H   0  0  0  0  0  0  0  0  0  0  0  0
    6.7959   -2.0920    3.7180 H   0  0  0  0  0  0  0  0  0  0  0  0
    4.9184   -1.7316   -2.5713 H   0  0  0  0  0  0  0  0  0  0  0  0
    6.1772   -0.5790   -2.1421 H   0  0  0  0  0  0  0  0  0  0  0  0
    6.8186   -1.9470   -5.7771 H   0  0  0  0  0  0  0  0  0  0  0  0
    6.0337   -2.4427   -4.2734 H   0  0  0  0  0  0  0  0  0  0  0  0
    9.6258   -4.0981   -5.3867 H   0  0  0  0  0  0  0  0  0  0  0  0
    7.9792   -3.6540   -5.6902 H   0  0  0  0  0  0  0  0  0  0  0  0
    6.0658   -4.7563   -3.3499 H   0  0  0  0  0  0  0  0  0  0  0  0
    5.2250   -7.4235   -2.9566 H   0  0  0  0  0  0  0  0  0  0  0  0
    5.8189   -6.6711   -1.4714 H   0  0  0  0  0  0  0  0  0  0  0  0
    6.7040   -9.3736   -2.6235 H   0  0  0  0  0  0  0  0  0  0  0  0
    5.6474   -9.1230   -1.2446 H   0  0  0  0  0  0  0  0  0  0  0  0
    7.5055   -7.9926    0.0053 H   0  0  0  0  0  0  0  0  0  0  0  0
    8.6036   -8.2829   -1.3467 H   0  0  0  0  0  0  0  0  0  0  0  0
    8.6611  -10.5183   -0.9632 H   0  0  0  0  0  0  0  0  0  0  0  0
    9.0423  -11.9099    1.5553 H   0  0  0  0  0  0  0  0  0  0  0  0
    8.2379  -12.4036    0.0608 H   0  0  0  0  0  0  0  0  0  0  0  0
    6.8612  -12.1983    2.8063 H   0  0  0  0  0  0  0  0  0  0  0  0
    7.4368  -13.6830    2.0767 H   0  0  0  0  0  0  0  0  0  0  0  0
    5.9178  -13.4474    0.1919 H   0  0  0  0  0  0  0  0  0  0  0  0
    5.3225  -11.8680    0.7931 H   0  0  0  0  0  0  0  0  0  0  0  0
    4.1030  -13.7289   -0.7314 H   0  0  0  0  0  0  0  0  0  0  0  0
    1.9418  -14.2043   -1.5640 H   0  0  0  0  0  0  0  0  0  0  0  0
    0.2977  -14.2968    2.4222 H   0  0  0  0  0  0  0  0  0  0  0  0
    2.5832  -13.8764    3.2991 H   0  0  0  0  0  0  0  0  0  0  0  0
    0.1154  -13.1149   -1.9330 H   0  0  0  0  0  0  0  0  0  0  0  0
   -2.6369  -14.7155   -3.8853 H   0  0  0  0  0  0  0  0  0  0  0  0
   -2.7739  -11.9534   -2.6488 H   0  0  0  0  0  0  0  0  0  0  0  0
   -4.6681  -14.6491   -0.5675 H   0  0  0  0  0  0  0  0  0  0  0  0
   -6.7918  -14.5965   -2.6493 H   0  0  0  0  0  0  0  0  0  0  0  0
   -8.5235  -13.8679   -4.1522 H   0  0  0  0  0  0  0  0  0  0  0  0
   -6.4155  -10.1653   -4.8601 H   0  0  0  0  0  0  0  0  0  0  0  0
   -4.7259  -10.8939   -3.3444 H   0  0  0  0  0  0  0  0  0  0  0  0
  -10.5871  -11.2174   -5.2548 H   0  0  0  0  0  0  0  0  0  0  0  0
  -10.1555  -12.9059   -5.0196 H   0  0  0  0  0  0  0  0  0  0  0  0
  -11.6089  -12.6912   -6.9649 H   0  0  0  0  0  0  0  0  0  0  0  0
  -10.0173  -13.2939   -7.4504 H   0  0  0  0  0  0  0  0  0  0  0  0
   -8.9198  -10.0315   -8.7748 H   0  0  0  0  0  0  0  0  0  0  0  0
   -8.4221  -11.7100   -8.5430 H   0  0  0  0  0  0  0  0  0  0  0  0
   -8.8914   -9.6188   -6.3370 H   0  0  0  0  0  0  0  0  0  0  0  0
   -7.3421  -10.2855   -6.8849 H   0  0  0  0  0  0  0  0  0  0  0  0
  -12.0160  -11.9527   -9.2763 H   0  0  0  0  0  0  0  0  0  0  0  0
  -10.4184  -12.5427   -9.7710 H   0  0  0  0  0  0  0  0  0  0  0  0
  -10.8894  -10.8548  -10.0543 H   0  0  0  0  0  0  0  0  0  0  0  0
    9.8851   -2.2562   -2.2845 H   0  0  0  0  0  0  0  0  0  0  0  0
   10.6186   -1.5220   -3.7043 H   0  0  0  0  0  0  0  0  0  0  0  0
   10.2060   -4.5144   -1.8366 H   0  0  0  0  0  0  0  0  0  0  0  0
   11.5623   -5.3242   -2.5193 H   0  0  0  0  0  0  0  0  0  0  0  0
    4.4485    0.5621   -6.1670 H   0  0  0  0  0  0  0  0  0  0  0  0
    5.4060   -0.7147   -6.8738 H   0  0  0  0  0  0  0  0  0  0  0  0
    6.1634    1.4398   -7.6834 H   0  0  0  0  0  0  0  0  0  0  0  0
    7.4565    0.7291   -6.7179 H   0  0  0  0  0  0  0  0  0  0  0  0
    5.5113    2.8781   -5.7005 H   0  0  0  0  0  0  0  0  0  0  0  0
    7.1268    3.1863   -6.3466 H   0  0  0  0  0  0  0  0  0  0  0  0
    6.9467    2.2640   -4.8495 H   0  0  0  0  0  0  0  0  0  0  0  0
  1  2  1  0  0  0  0
  1118  1  0  0  0  0
  1119  1  0  0  0  0
  1120  1  0  0  0  0
  2  3  1  0  0  0  0
  2121  1  0  0  0  0
  2122  1  0  0  0  0
  3  4  1  0  0  0  0
  3123  1  0  0  0  0
  3124  1  0  0  0  0
  4  5  1  0  0  0  0
  4 59  1  0  0  0  0
  5  6  2  0  0  0  0
  5  7  1  0  0  0  0
  7  8  1  0  0  0  0
  7125  1  0  0  0  0
  7126  1  0  0  0  0
  8  9  1  0  0  0  0
  8 56  1  0  0  0  0
  9 10  2  0  0  0  0
  9 11  1  0  0  0  0
 11 12  1  0  0  0  0
 11127  1  0  0  0  0
 12 13  1  0  0  0  0
 12128  1  0  0  0  0
 12129  1  0  0  0  0
 13 14  1  0  0  0  0
 13 17  2  0  0  0  0
 14 15  2  0  0  0  0
 15 16  1  0  0  0  0
 16 17  1  0  0  0  0
 16 18  1  0  0  0  0
 17130  1  0  0  0  0
 18 19  1  0  0  0  0
 18131  1  0  0  0  0
 18132  1  0  0  0  0
 19 20  1  0  0  0  0
 19133  1  0  0  0  0
 19134  1  0  0  0  0
 20 21  1  0  0  0  0
 20135  1  0  0  0  0
 20136  1  0  0  0  0
 21 22  1  0  0  0  0
 21137  1  0  0  0  0
 22 23  2  0  0  0  0
 22 24  1  0  0  0  0
 24 25  1  0  0  0  0
 24138  1  0  0  0  0
 24139  1  0  0  0  0
 25 26  1  0  0  0  0
 25140  1  0  0  0  0
 25141  1  0  0  0  0
 26 27  1  0  0  0  0
 26142  1  0  0  0  0
 26143  1  0  0  0  0
 27 28  1  0  0  0  0
 28 29  1  0  0  0  0
 28 33  2  0  0  0  0
 29 30  2  0  0  0  0
 29144  1  0  0  0  0
 30 31  1  0  0  0  0
 30145  1  0  0  0  0
 31 32  2  0  0  0  0
 31 34  1  0  0  0  0
 32 33  1  0  0  0  0
 32146  1  0  0  0  0
 33147  1  0  0  0  0
 34 35  2  0  0  0  0
 34 38  1  0  0  0  0
 35 36  1  0  0  0  0
 36 37  1  0  0  0  0
 36 42  2  0  0  0  0
 37 38  1  0  0  0  0
 37 39  2  0  0  0  0
 38148  1  0  0  0  0
 39 40  1  0  0  0  0
 39149  1  0  0  0  0
 40 41  2  0  0  0  0
 40150  1  0  0  0  0
 41 42  1  0  0  0  0
 41 43  1  0  0  0  0
 42151  1  0  0  0  0
 43 44  1  0  0  0  0
 43 48  2  0  0  0  0
 44 45  2  0  0  0  0
 44152  1  0  0  0  0
 45 46  1  0  0  0  0
 45153  1  0  0  0  0
 46 47  2  0  0  0  0
 46 49  1  0  0  0  0
 47 48  1  0  0  0  0
 47154  1  0  0  0  0
 48155  1  0  0  0  0
 49 50  1  0  0  0  0
 49 54  1  0  0  0  0
 50 51  1  0  0  0  0
 50156  1  0  0  0  0
 50157  1  0  0  0  0
 51 52  1  0  0  0  0
 51158  1  0  0  0  0
 51159  1  0  0  0  0
 52 53  1  0  0  0  0
 52 55  1  0  0  0  0
 53 54  1  0  0  0  0
 53160  1  0  0  0  0
 53161  1  0  0  0  0
 54162  1  0  0  0  0
 54163  1  0  0  0  0
 55164  1  0  0  0  0
 55165  1  0  0  0  0
 55166  1  0  0  0  0
 56 57  1  0  0  0  0
 56167  1  0  0  0  0
 56168  1  0  0  0  0
 57 58  1  0  0  0  0
 57169  1  0  0  0  0
 57170  1  0  0  0  0
 58171  1  0  0  0  0
 58172  1  0  0  0  0
 58173  1  0  0  0  0
 59 60  1  0  0  0  0
 59174  1  0  0  0  0
 59175  1  0  0  0  0
 60 61  2  0  0  0  0
 60 62  1  0  0  0  0
 62 63  1  0  0  0  0
 62115  1  0  0  0  0
 63 64  1  0  0  0  0
 63176  1  0  0  0  0
 63177  1  0  0  0  0
 64 65  2  0  0  0  0
 64 66  1  0  0  0  0
 66 67  1  0  0  0  0
 66111  1  0  0  0  0
 67 68  1  0  0  0  0
 67178  1  0  0  0  0
 67179  1  0  0  0  0
 68 69  1  0  0  0  0
 68 72  2  0  0  0  0
 69 70  2  0  0  0  0
 70 71  1  0  0  0  0
 71 72  1  0  0  0  0
 71 73  1  0  0  0  0
 72180  1  0  0  0  0
 73 74  1  0  0  0  0
 73181  1  0  0  0  0
 73182  1  0  0  0  0
 74 75  1  0  0  0  0
 74183  1  0  0  0  0
 74184  1  0  0  0  0
 75 76  1  0  0  0  0
 75185  1  0  0  0  0
 75186  1  0  0  0  0
 76 77  1  0  0  0  0
 76187  1  0  0  0  0
 77 78  2  0  0  0  0
 77 79  1  0  0  0  0
 79 80  1  0  0  0  0
 79188  1  0  0  0  0
 79189  1  0  0  0  0
 80 81  1  0  0  0  0
 80190  1  0  0  0  0
 80191  1  0  0  0  0
 81 82  1  0  0  0  0
 81192  1  0  0  0  0
 81193  1  0  0  0  0
 82 83  1  0  0  0  0
 83 84  1  0  0  0  0
 83 88  2  0  0  0  0
 84 85  2  0  0  0  0
 84194  1  0  0  0  0
 85 86  1  0  0  0  0
 85195  1  0  0  0  0
 86 87  2  0  0  0  0
 86 89  1  0  0  0  0
 87 88  1  0  0  0  0
 87196  1  0  0  0  0
 88197  1  0  0  0  0
 89 90  2  0  0  0  0
 89 93  1  0  0  0  0
 90 91  1  0  0  0  0
 91 92  1  0  0  0  0
 91 97  2  0  0  0  0
 92 93  1  0  0  0  0
 92 94  2  0  0  0  0
 93198  1  0  0  0  0
 94 95  1  0  0  0  0
 94199  1  0  0  0  0
 95 96  2  0  0  0  0
 95200  1  0  0  0  0
 96 97  1  0  0  0  0
 96 98  1  0  0  0  0
 97201  1  0  0  0  0
 98 99  1  0  0  0  0
 98103  2  0  0  0  0
 99100  2  0  0  0  0
 99202  1  0  0  0  0
100101  1  0  0  0  0
100203  1  0  0  0  0
101102  2  0  0  0  0
101104  1  0  0  0  0
102103  1  0  0  0  0
102204  1  0  0  0  0
103205  1  0  0  0  0
104105  1  0  0  0  0
104109  1  0  0  0  0
105106  1  0  0  0  0
105206  1  0  0  0  0
105207  1  0  0  0  0
106107  1  0  0  0  0
106208  1  0  0  0  0
106209  1  0  0  0  0
107108  1  0  0  0  0
107110  1  0  0  0  0
108109  1  0  0  0  0
108210  1  0  0  0  0
108211  1  0  0  0  0
109212  1  0  0  0  0
109213  1  0  0  0  0
110214  1  0  0  0  0
110215  1  0  0  0  0
110216  1  0  0  0  0
111112  1  0  0  0  0
111217  1  0  0  0  0
111218  1  0  0  0  0
112113  2  0  0  0  0
112114  1  0  0  0  0
114219  1  0  0  0  0
114220  1  0  0  0  0
115116  1  0  0  0  0
115221  1  0  0  0  0
115222  1  0  0  0  0
116117  1  0  0  0  0
116223  1  0  0  0  0
116224  1  0  0  0  0
117225  1  0  0  0  0
117226  1  0  0  0  0
117227  1  0  0  0  0
M  END
$$$$
Target_lig_676
 OpenBabel04172506223D

 50 53  0  0  0  0  0  0  0  0999 V2000
    3.0707    0.8125    1.6306 N   0  0  0  0  0  0  0  0  0  0  0  0
    4.2854    1.0182    1.1627 C   0  0  0  0  0  0  0  0  0  0  0  0
    5.3311    0.8212    1.9356 N   0  3  0  0  0  0  0  0  0  0  0  0
    4.4584    1.4853   -0.2274 C   0  0  0  0  0  0  0  0  0  0  0  0
    3.5017    2.3297   -0.8074 C   0  0  0  0  0  0  0  0  0  0  0  0
    3.6344    2.7606   -2.1259 C   0  0  0  0  0  0  0  0  0  0  0  0
    4.7387    2.3950   -2.9024 C   0  0  0  0  0  0  0  0  0  0  0  0
    4.9176    2.8994   -4.2050 N   0  0  0  0  0  0  0  0  0  0  0  0
    4.4309    4.1262   -4.7000 C   0  0  0  0  0  0  0  0  0  0  0  0
    4.3906    5.2695   -3.8888 C   0  0  0  0  0  0  0  0  0  0  0  0
    3.7907    6.4574   -4.3205 C   0  0  0  0  0  0  0  0  0  0  0  0
    3.2386    6.5479   -5.5988 C   0  0  0  0  0  0  0  0  0  0  0  0
    3.3296    5.4140   -6.4301 C   0  0  0  0  0  0  0  0  0  0  0  0
    3.9148    4.2192   -5.9891 C   0  0  0  0  0  0  0  0  0  0  0  0
    2.5354    7.7658   -6.0315 C   0  0  0  0  0  0  0  0  0  0  0  0
    2.3188    9.0018   -5.4307 C   0  0  0  0  0  0  0  0  0  0  0  0
    1.4178    9.7571   -6.2439 C   0  0  0  0  0  0  0  0  0  0  0  0
    0.7837   11.0109   -6.1520 C   0  0  0  0  0  0  0  0  0  0  0  0
   -0.1698   11.3729   -7.1255 C   0  0  0  0  0  0  0  0  0  0  0  0
   -0.4910   10.5246   -8.1991 C   0  0  0  0  0  0  0  0  0  0  0  0
    0.2126    9.3189   -8.3365 C   0  0  0  0  0  0  0  0  0  0  0  0
    1.1299    8.9681   -7.3473 C   0  0  0  0  0  0  0  0  0  0  0  0
    1.8782    7.8281   -7.2385 N   0  0  0  0  0  0  0  0  0  0  0  0
   -1.5895   10.8160   -9.1414 C   0  0  0  0  0  0  0  0  0  0  0  0
   -2.6878   11.3944   -8.7067 N   0  0  0  0  0  0  0  0  0  0  0  0
   -1.4923   10.4433  -10.4013 N   0  3  0  0  0  0  0  0  0  0  0  0
    5.6938    1.5483   -2.3375 C   0  0  0  0  0  0  0  0  0  0  0  0
    5.5594    1.1008   -1.0136 C   0  0  0  0  0  0  0  0  0  0  0  0
    2.8934    0.5215    2.5820 H   0  0  0  0  0  0  0  0  0  0  0  0
    2.2623    0.9207    1.0275 H   0  0  0  0  0  0  0  0  0  0  0  0
    5.2451    0.4970    2.8896 H   0  0  0  0  0  0  0  0  0  0  0  0
    6.2684    1.0086    1.5969 H   0  0  0  0  0  0  0  0  0  0  0  0
    2.6422    2.6912   -0.2477 H   0  0  0  0  0  0  0  0  0  0  0  0
    2.8578    3.3955   -2.5491 H   0  0  0  0  0  0  0  0  0  0  0  0
    5.0370    2.1731   -4.9057 H   0  0  0  0  0  0  0  0  0  0  0  0
    4.8197    5.2386   -2.8901 H   0  0  0  0  0  0  0  0  0  0  0  0
    3.7488    7.2933   -3.6280 H   0  0  0  0  0  0  0  0  0  0  0  0
    2.9295    5.4139   -7.4389 H   0  0  0  0  0  0  0  0  0  0  0  0
    3.9302    3.3627   -6.6588 H   0  0  0  0  0  0  0  0  0  0  0  0
    2.7100    9.3155   -4.4691 H   0  0  0  0  0  0  0  0  0  0  0  0
    0.9983   11.6781   -5.3182 H   0  0  0  0  0  0  0  0  0  0  0  0
   -0.6589   12.3400   -7.0106 H   0  0  0  0  0  0  0  0  0  0  0  0
    0.0137    8.6220   -9.1428 H   0  0  0  0  0  0  0  0  0  0  0  0
    1.8704    7.0936   -7.9247 H   0  0  0  0  0  0  0  0  0  0  0  0
   -2.7855   11.6379   -7.7272 H   0  0  0  0  0  0  0  0  0  0  0  0
   -3.4833   11.5659   -9.3068 H   0  0  0  0  0  0  0  0  0  0  0  0
   -0.6424   10.0106  -10.7472 H   0  0  0  0  0  0  0  0  0  0  0  0
   -2.2399   10.5773  -11.0680 H   0  0  0  0  0  0  0  0  0  0  0  0
    6.5718    1.2611   -2.9154 H   0  0  0  0  0  0  0  0  0  0  0  0
    6.3326    0.4432   -0.6217 H   0  0  0  0  0  0  0  0  0  0  0  0
  1  2  1  0  0  0  0
  1 29  1  0  0  0  0
  1 30  1  0  0  0  0
  2  3  2  0  0  0  0
  2  4  1  0  0  0  0
  3 31  1  0  0  0  0
  3 32  1  0  0  0  0
  4  5  2  0  0  0  0
  4 28  1  0  0  0  0
  5  6  1  0  0  0  0
  5 33  1  0  0  0  0
  6  7  2  0  0  0  0
  6 34  1  0  0  0  0
  7  8  1  0  0  0  0
  7 27  1  0  0  0  0
  8  9  1  0  0  0  0
  8 35  1  0  0  0  0
  9 10  2  0  0  0  0
  9 14  1  0  0  0  0
 10 11  1  0  0  0  0
 10 36  1  0  0  0  0
 11 12  2  0  0  0  0
 11 37  1  0  0  0  0
 12 13  1  0  0  0  0
 12 15  1  0  0  0  0
 13 14  2  0  0  0  0
 13 38  1  0  0  0  0
 14 39  1  0  0  0  0
 15 16  2  0  0  0  0
 15 23  1  0  0  0  0
 16 17  1  0  0  0  0
 16 40  1  0  0  0  0
 17 18  2  0  0  0  0
 17 22  1  0  0  0  0
 18 19  1  0  0  0  0
 18 41  1  0  0  0  0
 19 20  2  0  0  0  0
 19 42  1  0  0  0  0
 20 21  1  0  0  0  0
 20 24  1  0  0  0  0
 21 22  2  0  0  0  0
 21 43  1  0  0  0  0
 22 23  1  0  0  0  0
 23 44  1  0  0  0  0
 24 25  1  0  0  0  0
 24 26  2  0  0  0  0
 25 45  1  0  0  0  0
 25 46  1  0  0  0  0
 26 47  1  0  0  0  0
 26 48  1  0  0  0  0
 27 28  2  0  0  0  0
 27 49  1  0  0  0  0
 28 50  1  0  0  0  0
M  CHG  2   3   1  26   1
M  END
$$$$
Target_lig_1018
 OpenBabel04172506223D

 86 90  0  0  0  0  0  0  0  0999 V2000
    4.5611   -5.3763    2.5010 N   0  0  0  0  0  0  0  0  0  0  0  0
    5.0889   -6.5660    1.8348 C   0  0  0  0  0  0  0  0  0  0  0  0
    5.4274   -6.3424    0.3465 C   0  0  0  0  0  0  0  0  0  0  0  0
    6.5551   -5.2714   -0.0759 C   0  0  0  0  0  0  0  0  0  0  0  0
    8.2514   -5.4637    0.0530 C   0  0  0  0  0  0  0  0  0  0  0  0
    8.7428   -6.6166   -0.0283 O   0  0  0  0  0  0  0  0  0  0  0  0
    9.1155   -4.3193    0.1407 N   0  0  0  0  0  0  0  0  0  0  0  0
   10.7546   -4.0067   -0.2199 C   0  0  0  0  0  0  0  0  0  0  0  0
   12.2428   -4.4549    0.7019 C   0  0  0  0  0  0  0  0  0  0  0  0
   14.0583   -4.0047    0.4949 C   0  0  0  0  0  0  0  0  0  0  0  0
   15.3349   -4.4844    1.5884 N   0  0  0  0  0  0  0  0  0  0  0  0
   17.0038   -3.7306    1.5305 C   0  0  0  0  0  0  0  0  0  0  0  0
   18.7456   -4.2365    1.1562 C   0  0  0  0  0  0  0  0  0  0  0  0
   19.8531   -4.2332    2.0755 C   0  0  0  0  0  0  0  0  0  0  0  0
   21.1516   -4.9041    1.7903 C   0  0  0  0  0  0  0  0  0  0  0  0
   21.3885   -5.5249    0.5582 C   0  0  0  0  0  0  0  0  0  0  0  0
   20.5059   -5.0376   -0.4140 C   0  0  0  0  0  0  0  0  0  0  0  0
   19.2452   -4.4372   -0.1058 N   0  0  0  0  0  0  0  0  0  0  0  0
   20.7291   -5.4622   -1.6682 N   0  0  0  0  0  0  0  0  0  0  0  0
   21.3643   -6.6394   -1.8939 C   0  0  0  0  0  0  0  0  0  0  0  0
   22.1915   -7.2833   -0.9791 C   0  0  0  0  0  0  0  0  0  0  0  0
   22.2728   -6.6538    0.2641 C   0  0  0  0  0  0  0  0  0  0  0  0
   20.8008   -7.4236   -2.9196 N   0  0  0  0  0  0  0  0  0  0  0  0
   19.4142   -7.6739   -2.9850 C   0  0  0  0  0  0  0  0  0  0  0  0
   18.8803   -7.6640   -4.0961 O   0  0  0  0  0  0  0  0  0  0  0  0
   18.6674   -8.0793   -1.8474 O   0  0  0  0  0  0  0  0  0  0  0  0
   18.9617   -7.4230   -0.6040 C   0  0  0  0  0  0  0  0  0  0  0  0
   18.2651   -7.5189    0.7901 C   0  0  0  0  0  0  0  0  0  0  0  0
   19.2762   -7.5818    2.0131 C   0  0  0  0  0  0  0  0  0  0  0  0
   19.2144   -6.8350    3.1450 C   0  0  0  0  0  0  0  0  0  0  0  0
   20.1384   -6.5873    4.4191 C   0  0  0  0  0  0  0  0  0  0  0  0
   19.2508   -5.9954    5.5438 C   0  0  0  0  0  0  0  0  0  0  0  0
   19.6978   -5.4648    6.8047 O   0  0  0  0  0  0  0  0  0  0  0  0
   18.8534   -5.0459    7.8545 C   0  0  0  0  0  0  0  0  0  0  0  0
   19.3888   -4.6617    8.8968 O   0  0  0  0  0  0  0  0  0  0  0  0
   17.4126   -5.1048    7.8511 N   0  0  0  0  0  0  0  0  0  0  0  0
   16.5169   -5.1432    6.8073 C   0  0  0  0  0  0  0  0  0  0  0  0
   15.2546   -5.6569    6.9521 N   0  0  0  0  0  0  0  0  0  0  0  0
   14.6806   -5.9961    5.7784 C   0  0  0  0  0  0  0  0  0  0  0  0
   13.7944   -5.2169    5.1217 N   0  0  0  0  0  0  0  0  0  0  0  0
   13.7411   -5.3129    3.7350 C   0  0  0  0  0  0  0  0  0  0  0  0
   14.5457   -4.1277    2.9283 C   0  0  0  0  0  0  0  0  0  0  0  0
   13.9034   -6.5661    3.1858 C   0  0  0  0  0  0  0  0  0  0  0  0
   14.9358   -7.2612    3.7706 C   0  0  0  0  0  0  0  0  0  0  0  0
   15.4845   -6.6409    4.8900 C   0  0  0  0  0  0  0  0  0  0  0  0
   16.5052   -5.7525    4.6141 C   0  0  0  0  0  0  0  0  0  0  0  0
   16.8765   -4.8250    5.5659 C   0  0  0  0  0  0  0  0  0  0  0  0
    4.5242   -5.5591    3.5083 H   0  0  0  0  0  0  0  0  0  0  0  0
    3.5786   -5.2476    2.2399 H   0  0  0  0  0  0  0  0  0  0  0  0
    4.3219   -7.3528    1.9317 H   0  0  0  0  0  0  0  0  0  0  0  0
    5.9724   -6.9321    2.3612 H   0  0  0  0  0  0  0  0  0  0  0  0
    4.4633   -6.0380   -0.1165 H   0  0  0  0  0  0  0  0  0  0  0  0
    5.6248   -7.3259   -0.1022 H   0  0  0  0  0  0  0  0  0  0  0  0
    6.2418   -4.2951    0.3019 H   0  0  0  0  0  0  0  0  0  0  0  0
    6.3774   -5.2254   -1.1679 H   0  0  0  0  0  0  0  0  0  0  0  0
    8.5488   -3.4878   -0.0056 H   0  0  0  0  0  0  0  0  0  0  0  0
   10.7250   -2.9094   -0.2369 H   0  0  0  0  0  0  0  0  0  0  0  0
   10.8575   -4.3659   -1.2497 H   0  0  0  0  0  0  0  0  0  0  0  0
   11.9767   -4.1896    1.7294 H   0  0  0  0  0  0  0  0  0  0  0  0
   12.2523   -5.5389    0.5896 H   0  0  0  0  0  0  0  0  0  0  0  0
   14.1244   -2.9095    0.4683 H   0  0  0  0  0  0  0  0  0  0  0  0
   14.3708   -4.4379   -0.4581 H   0  0  0  0  0  0  0  0  0  0  0  0
   17.1604   -3.5257    2.6003 H   0  0  0  0  0  0  0  0  0  0  0  0
   16.8916   -2.7810    1.0064 H   0  0  0  0  0  0  0  0  0  0  0  0
   19.7925   -3.8077    3.0766 H   0  0  0  0  0  0  0  0  0  0  0  0
   21.9086   -5.0603    2.5710 H   0  0  0  0  0  0  0  0  0  0  0  0
   22.5592   -8.2936   -1.1583 H   0  0  0  0  0  0  0  0  0  0  0  0
   22.8117   -7.2010    1.0586 H   0  0  0  0  0  0  0  0  0  0  0  0
   21.0335   -7.0108   -3.8223 H   0  0  0  0  0  0  0  0  0  0  0  0
   18.7781   -6.3965   -0.9141 H   0  0  0  0  0  0  0  0  0  0  0  0
   19.9558   -7.7438   -0.3890 H   0  0  0  0  0  0  0  0  0  0  0  0
   17.6235   -8.3710    0.7909 H   0  0  0  0  0  0  0  0  0  0  0  0
   17.6116   -6.6245    0.8940 H   0  0  0  0  0  0  0  0  0  0  0  0
   20.1428   -8.2084    1.8621 H   0  0  0  0  0  0  0  0  0  0  0  0
   18.3927   -6.1394    3.1150 H   0  0  0  0  0  0  0  0  0  0  0  0
   20.8626   -5.8090    4.2035 H   0  0  0  0  0  0  0  0  0  0  0  0
   20.6771   -7.4688    4.7197 H   0  0  0  0  0  0  0  0  0  0  0  0
   18.4819   -6.7333    5.7614 H   0  0  0  0  0  0  0  0  0  0  0  0
   18.9664   -5.0807    5.0371 H   0  0  0  0  0  0  0  0  0  0  0  0
   17.0473   -5.1035    8.7781 H   0  0  0  0  0  0  0  0  0  0  0  0
   15.1958   -3.6025    3.6359 H   0  0  0  0  0  0  0  0  0  0  0  0
   13.7508   -3.4115    2.7062 H   0  0  0  0  0  0  0  0  0  0  0  0
   13.5528   -6.8149    2.1956 H   0  0  0  0  0  0  0  0  0  0  0  0
   15.5050   -7.9532    3.1517 H   0  0  0  0  0  0  0  0  0  0  0  0
   16.7564   -5.5866    3.5882 H   0  0  0  0  0  0  0  0  0  0  0  0
   17.5254   -3.9711    5.3629 H   0  0  0  0  0  0  0  0  0  0  0  0
  1  2  1  0  0  0  0
  1 48  1  0  0  0  0
  1 49  1  0  0  0  0
  2  3  1  0  0  0  0
  2 50  1  0  0  0  0
  2 51  1  0  0  0  0
  3  4  1  0  0  0  0
  3 52  1  0  0  0  0
  3 53  1  0  0  0  0
  4  5  1  0  0  0  0
  4 54  1  0  0  0  0
  4 55  1  0  0  0  0
  5  6  2  0  0  0  0
  5  7  1  0  0  0  0
  7  8  1  0  0  0  0
  7 56  1  0  0  0  0
  8  9  1  0  0  0  0
  8 57  1  0  0  0  0
  8 58  1  0  0  0  0
  9 10  1  0  0  0  0
  9 59  1  0  0  0  0
  9 60  1  0  0  0  0
 10 11  1  0  0  0  0
 10 61  1  0  0  0  0
 10 62  1  0  0  0  0
 11 12  1  0  0  0  0
 11 42  1  0  0  0  0
 12 13  1  0  0  0  0
 12 63  1  0  0  0  0
 12 64  1  0  0  0  0
 13 14  1  0  0  0  0
 13 18  2  0  0  0  0
 14 15  2  0  0  0  0
 14 65  1  0  0  0  0
 15 16  1  0  0  0  0
 15 66  1  0  0  0  0
 16 17  1  0  0  0  0
 16 22  2  0  0  0  0
 17 18  1  0  0  0  0
 17 19  2  0  0  0  0
 19 20  1  0  0  0  0
 20 21  2  0  0  0  0
 20 23  1  0  0  0  0
 21 22  1  0  0  0  0
 21 67  1  0  0  0  0
 22 68  1  0  0  0  0
 23 24  1  0  0  0  0
 23 69  1  0  0  0  0
 24 25  2  0  0  0  0
 24 26  1  0  0  0  0
 26 27  1  0  0  0  0
 27 28  1  0  0  0  0
 27 70  1  0  0  0  0
 27 71  1  0  0  0  0
 28 29  1  0  0  0  0
 28 72  1  0  0  0  0
 28 73  1  0  0  0  0
 29 30  2  0  0  0  0
 29 74  1  0  0  0  0
 30 31  1  0  0  0  0
 30 75  1  0  0  0  0
 31 32  1  0  0  0  0
 31 76  1  0  0  0  0
 31 77  1  0  0  0  0
 32 33  1  0  0  0  0
 32 78  1  0  0  0  0
 32 79  1  0  0  0  0
 33 34  1  0  0  0  0
 34 35  2  0  0  0  0
 34 36  1  0  0  0  0
 36 37  1  0  0  0  0
 36 80  1  0  0  0  0
 37 38  1  0  0  0  0
 37 47  2  0  0  0  0
 38 39  2  0  0  0  0
 39 40  1  0  0  0  0
 39 45  1  0  0  0  0
 40 41  2  0  0  0  0
 41 42  1  0  0  0  0
 41 43  1  0  0  0  0
 42 81  1  0  0  0  0
 42 82  1  0  0  0  0
 43 44  2  0  0  0  0
 43 83  1  0  0  0  0
 44 45  1  0  0  0  0
 44 84  1  0  0  0  0
 45 46  2  0  0  0  0
 46 47  1  0  0  0  0
 46 85  1  0  0  0  0
 47 86  1  0  0  0  0
M  END
$$$$
Target_lig_1278
 OpenBabel04172506223D

 81 86  0  0  0  0  0  0  0  0999 V2000
   13.1609   -4.3390   -6.3491 N   0  0  0  0  0  0  0  0  0  0  0  0
   13.9669   -3.4302   -6.6103 N   0  3  0  0  0  0  0  0  0  0  0  0
   14.7652   -2.5030   -6.8500 N   0  0  0  0  0  0  0  0  0  0  0  0
   14.2740   -1.1533   -6.5325 C   0  0  0  0  0  0  0  0  0  0  0  0
   15.3740   -0.1321   -6.8197 C   0  0  0  0  0  0  0  0  0  0  0  0
   14.9186    1.3111   -6.5723 C   0  0  0  0  0  0  0  0  0  0  0  0
   14.6103    1.5900   -5.1715 N   0  0  0  0  0  0  0  0  0  0  0  0
   15.5790    2.0039   -4.2780 C   0  0  0  0  0  0  0  0  0  0  0  0
   16.7638    2.0829   -4.5806 O   0  0  0  0  0  0  0  0  0  0  0  0
   15.0468    2.3198   -2.8768 C   0  0  0  0  0  0  0  0  0  0  0  0
   16.1415    2.8414   -1.9226 C   0  0  0  0  0  0  0  0  0  0  0  0
   15.6457    3.0926   -0.4814 C   0  0  0  0  0  0  0  0  0  0  0  0
   16.7090    3.6275    0.3331 O   0  0  0  0  0  0  0  0  0  0  0  0
   16.4526    3.8221    1.6757 C   0  0  0  0  0  0  0  0  0  0  0  0
   15.4262    3.2147    2.3917 C   0  0  0  0  0  0  0  0  0  0  0  0
   15.2612    3.4909    3.7558 C   0  0  0  0  0  0  0  0  0  0  0  0
   16.1349    4.3613    4.4333 C   0  0  0  0  0  0  0  0  0  0  0  0
   17.2102    4.9597    3.7619 C   0  0  0  0  0  0  0  0  0  0  0  0
   17.3386    4.6749    2.3719 C   0  0  0  0  0  0  0  0  0  0  0  0
   18.1683    5.8503    4.4868 C   0  0  0  0  0  0  0  0  0  0  0  0
   18.2411    6.1488    5.7843 N   0  0  0  0  0  0  0  0  0  0  0  0
   19.2931    7.0645    5.9362 C   0  0  0  0  0  0  0  0  0  0  0  0
   19.8805    7.2990    4.7070 C   0  0  0  0  0  0  0  0  0  0  0  0
   19.1719    6.5251    3.8280 N   0  0  0  0  0  0  0  0  0  0  0  0
   20.9498    8.1676    4.4998 C   0  0  0  0  0  0  0  0  0  0  0  0
   21.4096    8.8910    5.6055 C   0  0  0  0  0  0  0  0  0  0  0  0
   20.8426    8.7435    6.8800 C   0  0  0  0  0  0  0  0  0  0  0  0
   19.8105    7.7756    7.0591 C   0  0  0  0  0  0  0  0  0  0  0  0
   21.3104    9.6613    7.9503 C   0  0  0  0  0  0  0  0  0  0  0  0
   22.0649   10.7525    7.8031 N   0  0  0  0  0  0  0  0  0  0  0  0
   22.1906   11.3208    9.0563 C   0  0  0  0  0  0  0  0  0  0  0  0
   21.5349   10.5509    9.9937 C   0  0  0  0  0  0  0  0  0  0  0  0
   20.9719    9.5295    9.2719 N   0  0  0  0  0  0  0  0  0  0  0  0
   21.5219   10.8348   11.3586 C   0  0  0  0  0  0  0  0  0  0  0  0
   22.2288   11.9520   11.8389 C   0  0  0  0  0  0  0  0  0  0  0  0
   22.8362   12.7903   10.8909 C   0  0  0  0  0  0  0  0  0  0  0  0
   22.8406   12.4932    9.5077 C   0  0  0  0  0  0  0  0  0  0  0  0
   22.3803   12.1486   13.1992 N   0  0  0  0  0  0  0  0  0  0  0  0
   22.2968   13.4568   13.8625 C   0  0  0  0  0  0  0  0  0  0  0  0
   23.4278   13.5926   14.9160 C   0  0  0  0  0  0  0  0  0  0  0  0
   23.4470   12.4691   15.8851 N   0  0  0  0  0  0  0  0  0  0  0  0
   23.5800   11.1996   15.1388 C   0  0  0  0  0  0  0  0  0  0  0  0
   22.4388   10.9997   14.1180 C   0  0  0  0  0  0  0  0  0  0  0  0
   24.5419   12.6188   16.8396 C   0  0  0  0  0  0  0  0  0  0  0  0
   12.8509   -4.8455   -7.1873 H   0  0  0  0  0  0  0  0  0  0  0  0
   13.9788   -1.1022   -5.4783 H   0  0  0  0  0  0  0  0  0  0  0  0
   13.3930   -0.9333   -7.1475 H   0  0  0  0  0  0  0  0  0  0  0  0
   15.6821   -0.2287   -7.8700 H   0  0  0  0  0  0  0  0  0  0  0  0
   16.2600   -0.3603   -6.2149 H   0  0  0  0  0  0  0  0  0  0  0  0
   14.0218    1.5308   -7.1611 H   0  0  0  0  0  0  0  0  0  0  0  0
   15.7062    1.9981   -6.9012 H   0  0  0  0  0  0  0  0  0  0  0  0
   13.6380    1.7308   -4.9086 H   0  0  0  0  0  0  0  0  0  0  0  0
   14.6092    1.3979   -2.4767 H   0  0  0  0  0  0  0  0  0  0  0  0
   14.2481    3.0651   -2.9709 H   0  0  0  0  0  0  0  0  0  0  0  0
   16.5753    3.7633   -2.3287 H   0  0  0  0  0  0  0  0  0  0  0  0
   16.9687    2.1203   -1.8888 H   0  0  0  0  0  0  0  0  0  0  0  0
   15.2986    2.1347   -0.0817 H   0  0  0  0  0  0  0  0  0  0  0  0
   14.8187    3.8118   -0.5006 H   0  0  0  0  0  0  0  0  0  0  0  0
   14.7476    2.5066    1.9308 H   0  0  0  0  0  0  0  0  0  0  0  0
   14.4476    3.0140    4.3012 H   0  0  0  0  0  0  0  0  0  0  0  0
   15.9682    4.5592    5.4916 H   0  0  0  0  0  0  0  0  0  0  0  0
   18.1448    5.1161    1.7914 H   0  0  0  0  0  0  0  0  0  0  0  0
   19.3443    6.4975    2.8389 H   0  0  0  0  0  0  0  0  0  0  0  0
   21.3867    8.3161    3.5189 H   0  0  0  0  0  0  0  0  0  0  0  0
   22.2188    9.6073    5.4575 H   0  0  0  0  0  0  0  0  0  0  0  0
   19.3689    7.5926    8.0325 H   0  0  0  0  0  0  0  0  0  0  0  0
   20.4004    8.7965    9.6649 H   0  0  0  0  0  0  0  0  0  0  0  0
   20.9815   10.1897   12.0390 H   0  0  0  0  0  0  0  0  0  0  0  0
   23.3857   13.6705   11.2226 H   0  0  0  0  0  0  0  0  0  0  0  0
   23.3621   13.1407    8.8100 H   0  0  0  0  0  0  0  0  0  0  0  0
   21.3257   13.5359   14.3703 H   0  0  0  0  0  0  0  0  0  0  0  0
   22.3532   14.2945   13.1600 H   0  0  0  0  0  0  0  0  0  0  0  0
   23.2887   14.5363   15.4564 H   0  0  0  0  0  0  0  0  0  0  0  0
   24.3901   13.6521   14.3896 H   0  0  0  0  0  0  0  0  0  0  0  0
   23.5713   10.3526   15.8348 H   0  0  0  0  0  0  0  0  0  0  0  0
   24.5400   11.1736   14.6038 H   0  0  0  0  0  0  0  0  0  0  0  0
   21.4781   10.8872   14.6356 H   0  0  0  0  0  0  0  0  0  0  0  0
   22.6453   10.0624   13.5882 H   0  0  0  0  0  0  0  0  0  0  0  0
   24.4166   13.5372   17.4229 H   0  0  0  0  0  0  0  0  0  0  0  0
   25.5224   12.6480   16.3512 H   0  0  0  0  0  0  0  0  0  0  0  0
   24.5400   11.7893   17.5562 H   0  0  0  0  0  0  0  0  0  0  0  0
  1  2  2  0  0  0  0
  1 45  1  0  0  0  0
  2  3  2  0  0  0  0
  3  4  1  0  0  0  0
  4  5  1  0  0  0  0
  4 46  1  0  0  0  0
  4 47  1  0  0  0  0
  5  6  1  0  0  0  0
  5 48  1  0  0  0  0
  5 49  1  0  0  0  0
  6  7  1  0  0  0  0
  6 50  1  0  0  0  0
  6 51  1  0  0  0  0
  7  8  1  0  0  0  0
  7 52  1  0  0  0  0
  8  9  2  0  0  0  0
  8 10  1  0  0  0  0
 10 11  1  0  0  0  0
 10 53  1  0  0  0  0
 10 54  1  0  0  0  0
 11 12  1  0  0  0  0
 11 55  1  0  0  0  0
 11 56  1  0  0  0  0
 12 13  1  0  0  0  0
 12 57  1  0  0  0  0
 12 58  1  0  0  0  0
 13 14  1  0  0  0  0
 14 15  1  0  0  0  0
 14 19  2  0  0  0  0
 15 16  2  0  0  0  0
 15 59  1  0  0  0  0
 16 17  1  0  0  0  0
 16 60  1  0  0  0  0
 17 18  2  0  0  0  0
 17 61  1  0  0  0  0
 18 19  1  0  0  0  0
 18 20  1  0  0  0  0
 19 62  1  0  0  0  0
 20 21  2  0  0  0  0
 20 24  1  0  0  0  0
 21 22  1  0  0  0  0
 22 23  1  0  0  0  0
 22 28  2  0  0  0  0
 23 24  1  0  0  0  0
 23 25  2  0  0  0  0
 24 63  1  0  0  0  0
 25 26  1  0  0  0  0
 25 64  1  0  0  0  0
 26 27  2  0  0  0  0
 26 65  1  0  0  0  0
 27 28  1  0  0  0  0
 27 29  1  0  0  0  0
 28 66  1  0  0  0  0
 29 30  2  0  0  0  0
 29 33  1  0  0  0  0
 30 31  1  0  0  0  0
 31 32  1  0  0  0  0
 31 37  2  0  0  0  0
 32 33  1  0  0  0  0
 32 34  2  0  0  0  0
 33 67  1  0  0  0  0
 34 35  1  0  0  0  0
 34 68  1  0  0  0  0
 35 36  2  0  0  0  0
 35 38  1  0  0  0  0
 36 37  1  0  0  0  0
 36 69  1  0  0  0  0
 37 70  1  0  0  0  0
 38 39  1  0  0  0  0
 38 43  1  0  0  0  0
 39 40  1  0  0  0  0
 39 71  1  0  0  0  0
 39 72  1  0  0  0  0
 40 41  1  0  0  0  0
 40 73  1  0  0  0  0
 40 74  1  0  0  0  0
 41 42  1  0  0  0  0
 41 44  1  0  0  0  0
 42 43  1  0  0  0  0
 42 75  1  0  0  0  0
 42 76  1  0  0  0  0
 43 77  1  0  0  0  0
 43 78  1  0  0  0  0
 44 79  1  0  0  0  0
 44 80  1  0  0  0  0
 44 81  1  0  0  0  0
M  CHG  1   2   1
M  END
$$$$
Target_lig_1022
 OpenBabel04172506223D

182190  0  0  0  0  0  0  0  0999 V2000
    0.5347    2.7896   -1.0231 C   0  0  0  0  0  0  0  0  0  0  0  0
    1.1032    2.3294   -2.3506 C   0  0  0  0  0  0  0  0  0  0  0  0
    2.6241    2.4673   -2.4176 C   0  0  0  0  0  0  0  0  0  0  0  0
    3.3295    1.5859   -1.4788 N   0  0  0  0  0  0  0  0  0  0  0  0
    4.0208    2.1952   -0.4410 C   0  0  0  0  0  0  0  0  0  0  0  0
    4.1061    3.4110   -0.3351 O   0  0  0  0  0  0  0  0  0  0  0  0
    4.5855    1.3370    0.4726 N   0  0  0  0  0  0  0  0  0  0  0  0
    5.2721    1.7848    1.6675 C   0  0  0  0  0  0  0  0  0  0  0  0
    4.4626    2.7558    2.4357 C   0  0  0  0  0  0  0  0  0  0  0  0
    3.3967    2.3965    3.2265 N   0  0  0  0  0  0  0  0  0  0  0  0
    2.8142    3.5107    3.6624 N   0  0  0  0  0  0  0  0  0  0  0  0
    3.4929    4.5465    3.1394 N   0  0  0  0  0  0  0  0  0  0  0  0
    4.5732    4.1314    2.4355 C   0  0  0  0  0  0  0  0  0  0  0  0
    3.0898    5.9127    3.3846 C   0  0  0  0  0  0  0  0  0  0  0  0
    2.5934    6.6565    2.1397 C   0  0  0  0  0  0  0  0  0  0  0  0
    1.3209    6.0961    1.5061 C   0  0  0  0  0  0  0  0  0  0  0  0
    0.1118    6.1036    2.4230 C   0  0  0  0  0  0  0  0  0  0  0  0
   -1.1464    5.6150    1.7378 C   0  0  0  0  0  0  0  0  0  0  0  0
   -1.3396    5.7686    0.5117 O   0  0  0  0  0  0  0  0  0  0  0  0
   -2.2012    4.9622    2.5851 C   0  0  0  0  0  0  0  0  0  0  0  0
   -2.4016    3.4758    2.2848 C   0  0  0  0  0  0  0  0  0  0  0  0
   -1.1194    2.6324    2.1918 C   0  0  0  0  0  0  0  0  0  0  0  0
   -1.2863    1.2142    2.2473 O   0  0  0  0  0  0  0  0  0  0  0  0
   -2.1868    0.6447    3.1029 C   0  0  0  0  0  0  0  0  0  0  0  0
   -3.1276   -0.2510    2.4688 C   0  0  0  0  0  0  0  0  0  0  0  0
   -4.0267   -0.9640    3.2946 C   0  0  0  0  0  0  0  0  0  0  0  0
   -4.0030   -0.8679    4.6716 C   0  0  0  0  0  0  0  0  0  0  0  0
   -3.0753    0.0140    5.2541 C   0  0  0  0  0  0  0  0  0  0  0  0
   -2.1348    0.7996    4.5310 C   0  0  0  0  0  0  0  0  0  0  0  0
   -1.1237    1.6601    5.3857 C   0  0  0  0  0  0  0  0  0  0  0  0
   -1.2877    1.4695    6.9309 C   0  0  0  0  0  0  0  0  0  0  0  0
    0.3359    1.2692    5.0732 C   0  0  0  0  0  0  0  0  0  0  0  0
   -1.3002    3.1943    5.2879 C   0  0  0  0  0  0  0  0  0  0  0  0
   -5.0103   -1.5816    5.4664 C   0  0  0  0  0  0  0  0  0  0  0  0
   -4.9893   -1.6338    6.8436 N   0  0  0  0  0  0  0  0  0  0  0  0
   -6.2829   -1.4037    7.2149 C   0  0  0  0  0  0  0  0  0  0  0  0
   -7.0238   -1.8242    6.1182 C   0  0  0  0  0  0  0  0  0  0  0  0
   -6.1798   -2.0701    5.0587 N   0  0  0  0  0  0  0  0  0  0  0  0
   -8.4243   -1.8155    6.2161 C   0  0  0  0  0  0  0  0  0  0  0  0
   -8.9660   -0.8814    7.1138 C   0  0  0  0  0  0  0  0  0  0  0  0
   -8.0659   -0.2857    8.0150 C   0  0  0  0  0  0  0  0  0  0  0  0
   -6.8461   -0.8675    8.3599 C   0  0  0  0  0  0  0  0  0  0  0  0
  -10.2420   -0.3528    7.0110 N   0  0  0  0  0  0  0  0  0  0  0  0
  -11.1964   -0.7795    5.9827 C   0  0  0  0  0  0  0  0  0  0  0  0
  -12.0642    0.4311    5.5709 C   0  0  0  0  0  0  0  0  0  0  0  0
  -12.8030    1.0019    6.7216 N   0  0  0  0  0  0  0  0  0  0  0  0
  -11.8324    1.4081    7.7633 C   0  0  0  0  0  0  0  0  0  0  0  0
  -10.8818    0.2653    8.1943 C   0  0  0  0  0  0  0  0  0  0  0  0
  -13.6080    2.1427    6.2943 C   0  0  0  0  0  0  0  0  0  0  0  0
   -3.2758   -0.5651    0.9439 C   0  0  0  0  0  0  0  0  0  0  0  0
   -2.4139    0.2560   -0.0317 C   0  0  0  0  0  0  0  0  0  0  0  0
   -2.9311   -2.0583    0.7024 C   0  0  0  0  0  0  0  0  0  0  0  0
   -4.7513   -0.3492    0.4888 C   0  0  0  0  0  0  0  0  0  0  0  0
    3.6398    0.2239   -1.9473 C   0  0  0  0  0  0  0  0  0  0  0  0
    3.0691   -0.9031   -1.0601 C   0  0  0  0  0  0  0  0  0  0  0  0
    1.8483   -0.9405   -0.8582 O   0  0  0  0  0  0  0  0  0  0  0  0
    3.9323   -1.8629   -0.4667 N   0  0  0  0  0  0  0  0  0  0  0  0
    5.2336   -2.1477   -0.9134 C   0  0  0  0  0  0  0  0  0  0  0  0
    5.7804   -1.5345   -1.8277 O   0  0  0  0  0  0  0  0  0  0  0  0
    6.0013   -3.2858   -0.2308 C   0  0  0  0  0  0  0  0  0  0  0  0
    7.4851   -3.3562   -0.6177 C   0  0  0  0  0  0  0  0  0  0  0  0
    8.2457   -2.1469   -0.0813 C   0  0  0  0  0  0  0  0  0  0  0  0
    9.6374   -2.2606   -0.3742 O   0  0  0  0  0  0  0  0  0  0  0  0
   10.3787   -1.1551   -0.0425 C   0  0  0  0  0  0  0  0  0  0  0  0
    9.9014   -0.0198    0.6208 C   0  0  0  0  0  0  0  0  0  0  0  0
   10.7447    1.0658    0.8869 C   0  0  0  0  0  0  0  0  0  0  0  0
   12.0847    1.0236    0.5159 C   0  0  0  0  0  0  0  0  0  0  0  0
   12.5565   -0.1181   -0.1603 C   0  0  0  0  0  0  0  0  0  0  0  0
   11.7135   -1.1980   -0.4314 C   0  0  0  0  0  0  0  0  0  0  0  0
   12.9355    2.2038    0.6964 C   0  0  0  0  0  0  0  0  0  0  0  0
   14.2957    2.1837    0.4500 N   0  0  0  0  0  0  0  0  0  0  0  0
   14.5427    3.3345   -0.2214 C   0  0  0  0  0  0  0  0  0  0  0  0
   13.5114    4.1831    0.1766 C   0  0  0  0  0  0  0  0  0  0  0  0
   12.5731    3.4668    0.8807 N   0  0  0  0  0  0  0  0  0  0  0  0
   13.5387    5.5161   -0.2787 C   0  0  0  0  0  0  0  0  0  0  0  0
   14.1938    5.7164   -1.5034 C   0  0  0  0  0  0  0  0  0  0  0  0
   15.0168    4.6743   -1.9629 C   0  0  0  0  0  0  0  0  0  0  0  0
   15.5236    3.6859   -1.1246 C   0  0  0  0  0  0  0  0  0  0  0  0
   13.9146    6.7655   -2.3572 N   0  0  0  0  0  0  0  0  0  0  0  0
   12.8963    7.7840   -2.0876 C   0  0  0  0  0  0  0  0  0  0  0  0
   12.1470    8.1134   -3.3988 C   0  0  0  0  0  0  0  0  0  0  0  0
   13.0604    8.5808   -4.4671 N   0  0  0  0  0  0  0  0  0  0  0  0
   14.0790    7.5371   -4.7163 C   0  0  0  0  0  0  0  0  0  0  0  0
   14.8561    7.1303   -3.4412 C   0  0  0  0  0  0  0  0  0  0  0  0
   12.3153    8.8735   -5.6876 C   0  0  0  0  0  0  0  0  0  0  0  0
    3.2514   -2.7649    0.4821 C   0  0  0  0  0  0  0  0  0  0  0  0
    2.8483   -2.0773    1.7936 C   0  0  0  0  0  0  0  0  0  0  0  0
    2.1907   -3.0700    2.7428 C   0  0  0  0  0  0  0  0  0  0  0  0
   -0.5570    2.7023   -1.0379 H   0  0  0  0  0  0  0  0  0  0  0  0
    0.7826    3.8361   -0.8217 H   0  0  0  0  0  0  0  0  0  0  0  0
    0.9164    2.1789   -0.1990 H   0  0  0  0  0  0  0  0  0  0  0  0
    0.6608    2.9440   -3.1437 H   0  0  0  0  0  0  0  0  0  0  0  0
    0.8027    1.2934   -2.5345 H   0  0  0  0  0  0  0  0  0  0  0  0
    2.8830    3.5164   -2.2402 H   0  0  0  0  0  0  0  0  0  0  0  0
    2.9755    2.2410   -3.4312 H   0  0  0  0  0  0  0  0  0  0  0  0
    4.4342    0.3529    0.3935 H   0  0  0  0  0  0  0  0  0  0  0  0
    6.2333    2.2181    1.3653 H   0  0  0  0  0  0  0  0  0  0  0  0
    5.4790    0.8971    2.2780 H   0  0  0  0  0  0  0  0  0  0  0  0
    5.2348    4.7998    1.9107 H   0  0  0  0  0  0  0  0  0  0  0  0
    3.9753    6.4241    3.7809 H   0  0  0  0  0  0  0  0  0  0  0  0
    2.3391    5.9139    4.1816 H   0  0  0  0  0  0  0  0  0  0  0  0
    3.3829    6.6614    1.3776 H   0  0  0  0  0  0  0  0  0  0  0  0
    2.4211    7.7051    2.4119 H   0  0  0  0  0  0  0  0  0  0  0  0
    1.4981    5.0734    1.1444 H   0  0  0  0  0  0  0  0  0  0  0  0
    1.0930    6.6975    0.6104 H   0  0  0  0  0  0  0  0  0  0  0  0
   -0.0764    7.1107    2.8209 H   0  0  0  0  0  0  0  0  0  0  0  0
    0.3071    5.4489    3.2892 H   0  0  0  0  0  0  0  0  0  0  0  0
   -3.1427    5.4999    2.4256 H   0  0  0  0  0  0  0  0  0  0  0  0
   -1.9657    5.1463    3.6433 H   0  0  0  0  0  0  0  0  0  0  0  0
   -2.9198    3.3868    1.3231 H   0  0  0  0  0  0  0  0  0  0  0  0
   -3.0918    3.0736    3.0234 H   0  0  0  0  0  0  0  0  0  0  0  0
   -0.3055    2.9082    2.8556 H   0  0  0  0  0  0  0  0  0  0  0  0
   -0.6855    2.8367    1.2157 H   0  0  0  0  0  0  0  0  0  0  0  0
   -4.7760   -1.6238    2.8584 H   0  0  0  0  0  0  0  0  0  0  0  0
   -3.1092    0.0924    6.3324 H   0  0  0  0  0  0  0  0  0  0  0  0
   -1.1138    0.4385    7.2444 H   0  0  0  0  0  0  0  0  0  0  0  0
   -2.2867    1.7865    7.2598 H   0  0  0  0  0  0  0  0  0  0  0  0
   -0.5780    2.0953    7.4874 H   0  0  0  0  0  0  0  0  0  0  0  0
    0.5697    0.2752    5.4709 H   0  0  0  0  0  0  0  0  0  0  0  0
    1.0366    1.9781    5.5322 H   0  0  0  0  0  0  0  0  0  0  0  0
    0.5632    1.2413    4.0057 H   0  0  0  0  0  0  0  0  0  0  0  0
   -2.3545    3.4859    5.3101 H   0  0  0  0  0  0  0  0  0  0  0  0
   -0.8105    3.6329    4.4375 H   0  0  0  0  0  0  0  0  0  0  0  0
   -0.8026    3.7195    6.1151 H   0  0  0  0  0  0  0  0  0  0  0  0
   -4.1878   -1.4232    7.4151 H   0  0  0  0  0  0  0  0  0  0  0  0
   -9.0108   -2.3035    5.4525 H   0  0  0  0  0  0  0  0  0  0  0  0
   -8.0529    0.8139    7.9213 H   0  0  0  0  0  0  0  0  0  0  0  0
   -6.8779   -1.5446    9.2216 H   0  0  0  0  0  0  0  0  0  0  0  0
  -11.8243   -1.5912    6.3710 H   0  0  0  0  0  0  0  0  0  0  0  0
  -10.7026   -1.1389    5.0757 H   0  0  0  0  0  0  0  0  0  0  0  0
  -12.7709    0.1028    4.8019 H   0  0  0  0  0  0  0  0  0  0  0  0
  -11.4144    1.1938    5.1240 H   0  0  0  0  0  0  0  0  0  0  0  0
  -12.3742    1.7562    8.6513 H   0  0  0  0  0  0  0  0  0  0  0  0
  -11.2226    2.2484    7.4044 H   0  0  0  0  0  0  0  0  0  0  0  0
  -11.4390   -0.5011    8.7461 H   0  0  0  0  0  0  0  0  0  0  0  0
  -10.1571    0.6975    8.8948 H   0  0  0  0  0  0  0  0  0  0  0  0
  -14.3206    1.8375    5.5205 H   0  0  0  0  0  0  0  0  0  0  0  0
  -12.9968    2.9603    5.8963 H   0  0  0  0  0  0  0  0  0  0  0  0
  -14.1977    2.5269    7.1335 H   0  0  0  0  0  0  0  0  0  0  0  0
   -1.3441    0.0768    0.1163 H   0  0  0  0  0  0  0  0  0  0  0  0
   -2.6192    1.3260    0.0567 H   0  0  0  0  0  0  0  0  0  0  0  0
   -2.6280   -0.0199   -1.0728 H   0  0  0  0  0  0  0  0  0  0  0  0
   -1.8660   -2.2543    0.8906 H   0  0  0  0  0  0  0  0  0  0  0  0
   -3.1460   -2.3540   -0.3325 H   0  0  0  0  0  0  0  0  0  0  0  0
   -3.5000   -2.7380    1.3436 H   0  0  0  0  0  0  0  0  0  0  0  0
   -5.1315    0.6253    0.8128 H   0  0  0  0  0  0  0  0  0  0  0  0
   -5.4285   -1.1194    0.8765 H   0  0  0  0  0  0  0  0  0  0  0  0
   -4.8443   -0.3976   -0.6034 H   0  0  0  0  0  0  0  0  0  0  0  0
    4.7127    0.2200   -2.0845 H   0  0  0  0  0  0  0  0  0  0  0  0
    3.1840    0.0733   -2.9330 H   0  0  0  0  0  0  0  0  0  0  0  0
    5.5313   -4.2279   -0.5337 H   0  0  0  0  0  0  0  0  0  0  0  0
    5.9335   -3.1771    0.8570 H   0  0  0  0  0  0  0  0  0  0  0  0
    7.6108   -3.4251   -1.7049 H   0  0  0  0  0  0  0  0  0  0  0  0
    7.9286   -4.2714   -0.2058 H   0  0  0  0  0  0  0  0  0  0  0  0
    8.1127   -2.0995    1.0059 H   0  0  0  0  0  0  0  0  0  0  0  0
    7.8510   -1.2394   -0.5476 H   0  0  0  0  0  0  0  0  0  0  0  0
    8.8674    0.0724    0.9320 H   0  0  0  0  0  0  0  0  0  0  0  0
   10.3357    1.9576    1.3590 H   0  0  0  0  0  0  0  0  0  0  0  0
   13.5736   -0.1765   -0.5390 H   0  0  0  0  0  0  0  0  0  0  0  0
   12.0964   -2.0614   -0.9718 H   0  0  0  0  0  0  0  0  0  0  0  0
   14.8420    1.3398    0.3632 H   0  0  0  0  0  0  0  0  0  0  0  0
   12.8691    6.2279    0.1603 H   0  0  0  0  0  0  0  0  0  0  0  0
   14.7583    4.3437   -2.9785 H   0  0  0  0  0  0  0  0  0  0  0  0
   16.5179    3.8797   -0.6981 H   0  0  0  0  0  0  0  0  0  0  0  0
   13.3743    8.6836   -1.6825 H   0  0  0  0  0  0  0  0  0  0  0  0
   12.1455    7.4505   -1.3646 H   0  0  0  0  0  0  0  0  0  0  0  0
   11.4018    8.8885   -3.1837 H   0  0  0  0  0  0  0  0  0  0  0  0
   11.6054    7.2171   -3.7300 H   0  0  0  0  0  0  0  0  0  0  0  0
   14.8036    7.9001   -5.4548 H   0  0  0  0  0  0  0  0  0  0  0  0
   13.6073    6.6386   -5.1376 H   0  0  0  0  0  0  0  0  0  0  0  0
   15.4853    7.9615   -3.1020 H   0  0  0  0  0  0  0  0  0  0  0  0
   15.5314    6.3176   -3.7179 H   0  0  0  0  0  0  0  0  0  0  0  0
   11.5624    9.6462   -5.4988 H   0  0  0  0  0  0  0  0  0  0  0  0
   11.8081    7.9895   -6.0911 H   0  0  0  0  0  0  0  0  0  0  0  0
   12.9872    9.2683   -6.4572 H   0  0  0  0  0  0  0  0  0  0  0  0
    3.8638   -3.6337    0.7274 H   0  0  0  0  0  0  0  0  0  0  0  0
    2.3621   -3.1705   -0.0155 H   0  0  0  0  0  0  0  0  0  0  0  0
    2.1480   -1.2566    1.6061 H   0  0  0  0  0  0  0  0  0  0  0  0
    3.7284   -1.6365    2.2760 H   0  0  0  0  0  0  0  0  0  0  0  0
    1.3229   -3.5453    2.2733 H   0  0  0  0  0  0  0  0  0  0  0  0
    1.8500   -2.5639    3.6512 H   0  0  0  0  0  0  0  0  0  0  0  0
    2.8943   -3.8564    3.0349 H   0  0  0  0  0  0  0  0  0  0  0  0
  1  2  1  0  0  0  0
  1 89  1  0  0  0  0
  1 90  1  0  0  0  0
  1 91  1  0  0  0  0
  2  3  1  0  0  0  0
  2 92  1  0  0  0  0
  2 93  1  0  0  0  0
  3  4  1  0  0  0  0
  3 94  1  0  0  0  0
  3 95  1  0  0  0  0
  4  5  1  0  0  0  0
  4 54  1  0  0  0  0
  5  6  2  0  0  0  0
  5  7  1  0  0  0  0
  7  8  1  0  0  0  0
  7 96  1  0  0  0  0
  8  9  1  0  0  0  0
  8 97  1  0  0  0  0
  8 98  1  0  0  0  0
  9 10  1  0  0  0  0
  9 13  2  0  0  0  0
 10 11  2  0  0  0  0
 11 12  1  0  0  0  0
 12 13  1  0  0  0  0
 12 14  1  0  0  0  0
 13 99  1  0  0  0  0
 14 15  1  0  0  0  0
 14100  1  0  0  0  0
 14101  1  0  0  0  0
 15 16  1  0  0  0  0
 15102  1  0  0  0  0
 15103  1  0  0  0  0
 16 17  1  0  0  0  0
 16104  1  0  0  0  0
 16105  1  0  0  0  0
 17 18  1  0  0  0  0
 17106  1  0  0  0  0
 17107  1  0  0  0  0
 18 19  2  0  0  0  0
 18 20  1  0  0  0  0
 20 21  1  0  0  0  0
 20108  1  0  0  0  0
 20109  1  0  0  0  0
 21 22  1  0  0  0  0
 21110  1  0  0  0  0
 21111  1  0  0  0  0
 22 23  1  0  0  0  0
 22112  1  0  0  0  0
 22113  1  0  0  0  0
 23 24  1  0  0  0  0
 24 25  1  0  0  0  0
 24 29  2  0  0  0  0
 25 26  2  0  0  0  0
 25 50  1  0  0  0  0
 26 27  1  0  0  0  0
 26114  1  0  0  0  0
 27 28  2  0  0  0  0
 27 34  1  0  0  0  0
 28 29  1  0  0  0  0
 28115  1  0  0  0  0
 29 30  1  0  0  0  0
 30 31  1  0  0  0  0
 30 32  1  0  0  0  0
 30 33  1  0  0  0  0
 31116  1  0  0  0  0
 31117  1  0  0  0  0
 31118  1  0  0  0  0
 32119  1  0  0  0  0
 32120  1  0  0  0  0
 32121  1  0  0  0  0
 33122  1  0  0  0  0
 33123  1  0  0  0  0
 33124  1  0  0  0  0
 34 35  1  0  0  0  0
 34 38  2  0  0  0  0
 35 36  1  0  0  0  0
 35125  1  0  0  0  0
 36 37  1  0  0  0  0
 36 42  2  0  0  0  0
 37 38  1  0  0  0  0
 37 39  2  0  0  0  0
 39 40  1  0  0  0  0
 39126  1  0  0  0  0
 40 41  2  0  0  0  0
 40 43  1  0  0  0  0
 41 42  1  0  0  0  0
 41127  1  0  0  0  0
 42128  1  0  0  0  0
 43 44  1  0  0  0  0
 43 48  1  0  0  0  0
 44 45  1  0  0  0  0
 44129  1  0  0  0  0
 44130  1  0  0  0  0
 45 46  1  0  0  0  0
 45131  1  0  0  0  0
 45132  1  0  0  0  0
 46 47  1  0  0  0  0
 46 49  1  0  0  0  0
 47 48  1  0  0  0  0
 47133  1  0  0  0  0
 47134  1  0  0  0  0
 48135  1  0  0  0  0
 48136  1  0  0  0  0
 49137  1  0  0  0  0
 49138  1  0  0  0  0
 49139  1  0  0  0  0
 50 51  1  0  0  0  0
 50 52  1  0  0  0  0
 50 53  1  0  0  0  0
 51140  1  0  0  0  0
 51141  1  0  0  0  0
 51142  1  0  0  0  0
 52143  1  0  0  0  0
 52144  1  0  0  0  0
 52145  1  0  0  0  0
 53146  1  0  0  0  0
 53147  1  0  0  0  0
 53148  1  0  0  0  0
 54 55  1  0  0  0  0
 54149  1  0  0  0  0
 54150  1  0  0  0  0
 55 56  2  0  0  0  0
 55 57  1  0  0  0  0
 57 58  1  0  0  0  0
 57 86  1  0  0  0  0
 58 59  2  0  0  0  0
 58 60  1  0  0  0  0
 60 61  1  0  0  0  0
 60151  1  0  0  0  0
 60152  1  0  0  0  0
 61 62  1  0  0  0  0
 61153  1  0  0  0  0
 61154  1  0  0  0  0
 62 63  1  0  0  0  0
 62155  1  0  0  0  0
 62156  1  0  0  0  0
 63 64  1  0  0  0  0
 64 65  1  0  0  0  0
 64 69  2  0  0  0  0
 65 66  2  0  0  0  0
 65157  1  0  0  0  0
 66 67  1  0  0  0  0
 66158  1  0  0  0  0
 67 68  2  0  0  0  0
 67 70  1  0  0  0  0
 68 69  1  0  0  0  0
 68159  1  0  0  0  0
 69160  1  0  0  0  0
 70 71  1  0  0  0  0
 70 74  2  0  0  0  0
 71 72  1  0  0  0  0
 71161  1  0  0  0  0
 72 73  1  0  0  0  0
 72 78  2  0  0  0  0
 73 74  1  0  0  0  0
 73 75  2  0  0  0  0
 75 76  1  0  0  0  0
 75162  1  0  0  0  0
 76 77  2  0  0  0  0
 76 79  1  0  0  0  0
 77 78  1  0  0  0  0
 77163  1  0  0  0  0
 78164  1  0  0  0  0
 79 80  1  0  0  0  0
 79 84  1  0  0  0  0
 80 81  1  0  0  0  0
 80165  1  0  0  0  0
 80166  1  0  0  0  0
 81 82  1  0  0  0  0
 81167  1  0  0  0  0
 81168  1  0  0  0  0
 82 83  1  0  0  0  0
 82 85  1  0  0  0  0
 83 84  1  0  0  0  0
 83169  1  0  0  0  0
 83170  1  0  0  0  0
 84171  1  0  0  0  0
 84172  1  0  0  0  0
 85173  1  0  0  0  0
 85174  1  0  0  0  0
 85175  1  0  0  0  0
 86 87  1  0  0  0  0
 86176  1  0  0  0  0
 86177  1  0  0  0  0
 87 88  1  0  0  0  0
 87178  1  0  0  0  0
 87179  1  0  0  0  0
 88180  1  0  0  0  0
 88181  1  0  0  0  0
 88182  1  0  0  0  0
M  END
$$$$
Target_lig_1023
 OpenBabel04172506223D

229240  0  0  0  0  0  0  0  0999 V2000
    0.5996    0.0326    0.2573 C   0  0  0  0  0  0  0  0  0  0  0  0
    2.1029   -0.0568    0.0340 C   0  0  0  0  0  0  0  0  0  0  0  0
    2.8468    1.0455    0.7870 C   0  0  0  0  0  0  0  0  0  0  0  0
    4.3075    1.1607    0.6710 N   0  0  0  0  0  0  0  0  0  0  0  0
    5.0346    0.4678   -0.3080 C   0  0  0  0  0  0  0  0  0  0  0  0
    4.5302   -0.3408   -1.0807 O   0  0  0  0  0  0  0  0  0  0  0  0
    6.5462    0.6361   -0.3454 C   0  0  0  0  0  0  0  0  0  0  0  0
    7.4550   -0.1964    0.4219 N   0  0  0  0  0  0  0  0  0  0  0  0
    7.1702   -1.0098    1.4900 C   0  0  0  0  0  0  0  0  0  0  0  0
    8.0823   -1.5848    2.0837 O   0  0  0  0  0  0  0  0  0  0  0  0
    5.8438   -1.2137    1.8512 N   0  0  0  0  0  0  0  0  0  0  0  0
    5.7263   -2.1078    3.0008 C   0  0  0  0  0  0  0  0  0  0  0  0
    4.4339   -2.4232    3.6731 C   0  0  0  0  0  0  0  0  0  0  0  0
    4.2367   -3.7207    4.1136 N   0  0  0  0  0  0  0  0  0  0  0  0
    3.3328   -3.7100    5.0813 N   0  0  0  0  0  0  0  0  0  0  0  0
    2.9524   -2.4430    5.2559 N   0  0  0  0  0  0  0  0  0  0  0  0
    3.5217   -1.6165    4.3083 C   0  0  0  0  0  0  0  0  0  0  0  0
    2.2015   -2.0099    6.4266 C   0  0  0  0  0  0  0  0  0  0  0  0
    1.5200   -3.0356    7.3569 C   0  0  0  0  0  0  0  0  0  0  0  0
    2.3157   -3.8098    8.4274 C   0  0  0  0  0  0  0  0  0  0  0  0
    2.9094   -3.0222    9.5931 C   0  0  0  0  0  0  0  0  0  0  0  0
    4.0727   -2.1346    9.2241 C   0  0  0  0  0  0  0  0  0  0  0  0
    5.0454   -2.5527    8.6028 O   0  0  0  0  0  0  0  0  0  0  0  0
    4.0306   -0.6972    9.7013 C   0  0  0  0  0  0  0  0  0  0  0  0
    4.1311   -0.5890   11.2198 C   0  0  0  0  0  0  0  0  0  0  0  0
    5.4333   -1.1855   11.7539 C   0  0  0  0  0  0  0  0  0  0  0  0
    5.4732   -1.0340   13.1784 O   0  0  0  0  0  0  0  0  0  0  0  0
    6.6357   -1.4420   13.7842 C   0  0  0  0  0  0  0  0  0  0  0  0
    7.7076   -2.0354   13.1331 C   0  0  0  0  0  0  0  0  0  0  0  0
    8.8482   -2.3867   13.8546 C   0  0  0  0  0  0  0  0  0  0  0  0
    8.9556   -2.1892   15.2499 C   0  0  0  0  0  0  0  0  0  0  0  0
    7.8778   -1.5957   15.8984 C   0  0  0  0  0  0  0  0  0  0  0  0
    6.7269   -1.2315   15.1659 C   0  0  0  0  0  0  0  0  0  0  0  0
   10.1261   -2.7475   15.9498 C   0  0  0  0  0  0  0  0  0  0  0  0
   10.7106   -2.4996   17.1271 N   0  0  0  0  0  0  0  0  0  0  0  0
   11.6827   -3.5106   17.2710 C   0  0  0  0  0  0  0  0  0  0  0  0
   11.8638   -4.1247   16.0341 C   0  0  0  0  0  0  0  0  0  0  0  0
   10.7203   -3.8410   15.3710 N   0  0  0  0  0  0  0  0  0  0  0  0
   12.7991   -5.1189   15.8106 C   0  0  0  0  0  0  0  0  0  0  0  0
   12.6011   -5.9722   16.8866 C   0  0  0  0  0  0  0  0  0  0  0  0
   12.7596   -5.4676   18.1889 C   0  0  0  0  0  0  0  0  0  0  0  0
   12.3833   -4.1047   18.3737 C   0  0  0  0  0  0  0  0  0  0  0  0
   13.2683   -6.4706   19.1903 C   0  0  0  0  0  0  0  0  0  0  0  0
   14.2787   -6.1844   20.0967 C   0  0  0  0  0  0  0  0  0  0  0  0
   14.9987   -7.2429   20.7651 C   0  0  0  0  0  0  0  0  0  0  0  0
   14.7239   -8.6165   20.5592 C   0  0  0  0  0  0  0  0  0  0  0  0
   13.6312   -8.8704   19.7260 C   0  0  0  0  0  0  0  0  0  0  0  0
   12.9206   -7.8271   19.0811 C   0  0  0  0  0  0  0  0  0  0  0  0
   15.5450   -9.6158   21.0949 N   0  0  0  0  0  0  0  0  0  0  0  0
   16.1809   -9.4468   22.4130 C   0  0  0  0  0  0  0  0  0  0  0  0
   17.5917  -10.0561   22.3997 C   0  0  0  0  0  0  0  0  0  0  0  0
   17.5470  -11.4800   22.0316 N   0  0  0  0  0  0  0  0  0  0  0  0
   16.8979  -11.6438   20.7171 C   0  0  0  0  0  0  0  0  0  0  0  0
   15.4788  -11.0308   20.6755 C   0  0  0  0  0  0  0  0  0  0  0  0
   18.9013  -12.0401   22.0256 C   0  0  0  0  0  0  0  0  0  0  0  0
    8.8796   -0.1547   -0.0061 C   0  0  0  0  0  0  0  0  0  0  0  0
    9.4967    1.2392   -0.1678 C   0  0  0  0  0  0  0  0  0  0  0  0
    9.5398    2.0503    1.1173 C   0  0  0  0  0  0  0  0  0  0  0  0
    4.8663    2.3683    1.2995 C   0  0  0  0  0  0  0  0  0  0  0  0
    4.9281    3.5542    0.3030 C   0  0  0  0  0  0  0  0  0  0  0  0
    5.4474    3.3641   -0.8074 O   0  0  0  0  0  0  0  0  0  0  0  0
    4.5479    4.8274    0.7421 N   0  0  0  0  0  0  0  0  0  0  0  0
    5.1358    5.8833   -0.0971 C   0  0  0  0  0  0  0  0  0  0  0  0
    4.4543    6.0369   -1.4870 C   0  0  0  0  0  0  0  0  0  0  0  0
    3.3715    5.4721   -1.6587 O   0  0  0  0  0  0  0  0  0  0  0  0
    5.1326    6.7655   -2.4648 N   0  0  0  0  0  0  0  0  0  0  0  0
    4.4512    7.2036   -3.7161 C   0  0  0  0  0  0  0  0  0  0  0  0
    5.3042    7.0295   -4.9175 C   0  0  0  0  0  0  0  0  0  0  0  0
    6.2337    7.9525   -5.2821 N   0  0  0  0  0  0  0  0  0  0  0  0
    6.7988    7.5557   -6.4207 N   0  0  0  0  0  0  0  0  0  0  0  0
    6.1865    6.4208   -6.8174 N   0  0  0  0  0  0  0  0  0  0  0  0
    5.2878    6.0289   -5.8554 C   0  0  0  0  0  0  0  0  0  0  0  0
    6.3288    5.9171   -8.1733 C   0  0  0  0  0  0  0  0  0  0  0  0
    7.2530    4.7102   -8.4113 C   0  0  0  0  0  0  0  0  0  0  0  0
    6.9843    3.3669   -7.7033 C   0  0  0  0  0  0  0  0  0  0  0  0
    6.0080    2.3486   -8.3308 C   0  0  0  0  0  0  0  0  0  0  0  0
    4.5344    2.5013   -7.9944 C   0  0  0  0  0  0  0  0  0  0  0  0
    4.1748    3.1603   -7.0177 O   0  0  0  0  0  0  0  0  0  0  0  0
    3.5253    1.7384   -8.8484 C   0  0  0  0  0  0  0  0  0  0  0  0
    2.1848    2.4717   -9.0006 C   0  0  0  0  0  0  0  0  0  0  0  0
    2.3586    3.8266   -9.6905 C   0  0  0  0  0  0  0  0  0  0  0  0
    1.1124    4.5499   -9.7535 O   0  0  0  0  0  0  0  0  0  0  0  0
    1.1706    5.7783  -10.3863 C   0  0  0  0  0  0  0  0  0  0  0  0
    2.1259    6.1281  -11.3281 C   0  0  0  0  0  0  0  0  0  0  0  0
    2.0849    7.3872  -11.9329 C   0  0  0  0  0  0  0  0  0  0  0  0
    1.1215    8.3759  -11.6116 C   0  0  0  0  0  0  0  0  0  0  0  0
    0.1508    8.0203  -10.6807 C   0  0  0  0  0  0  0  0  0  0  0  0
    0.1762    6.7301  -10.0827 C   0  0  0  0  0  0  0  0  0  0  0  0
    1.2967    9.7190  -12.2157 C   0  0  0  0  0  0  0  0  0  0  0  0
    0.5415   10.8154  -12.3719 N   0  0  0  0  0  0  0  0  0  0  0  0
    1.3891   11.7556  -13.0071 C   0  0  0  0  0  0  0  0  0  0  0  0
    2.5021   11.0744  -13.4929 C   0  0  0  0  0  0  0  0  0  0  0  0
    2.5625   10.0155  -12.6541 N   0  0  0  0  0  0  0  0  0  0  0  0
    3.5062   11.6634  -14.2407 C   0  0  0  0  0  0  0  0  0  0  0  0
    3.7811   12.8016  -13.5060 C   0  0  0  0  0  0  0  0  0  0  0  0
    2.7425   13.7292  -13.2873 C   0  0  0  0  0  0  0  0  0  0  0  0
    1.4267   13.1811  -13.1456 C   0  0  0  0  0  0  0  0  0  0  0  0
    3.1946   15.1483  -13.2135 C   0  0  0  0  0  0  0  0  0  0  0  0
    2.5941   16.1790  -13.9335 C   0  0  0  0  0  0  0  0  0  0  0  0
    3.2764   17.4021  -14.1501 C   0  0  0  0  0  0  0  0  0  0  0  0
    4.5748   17.6785  -13.6656 C   0  0  0  0  0  0  0  0  0  0  0  0
    5.1204   16.6826  -12.8556 C   0  0  0  0  0  0  0  0  0  0  0  0
    4.4457   15.4661  -12.6278 C   0  0  0  0  0  0  0  0  0  0  0  0
    5.2588   18.8259  -14.0495 N   0  0  0  0  0  0  0  0  0  0  0  0
    4.5498   20.0844  -14.1993 C   0  0  0  0  0  0  0  0  0  0  0  0
    5.1539   20.8587  -15.3836 C   0  0  0  0  0  0  0  0  0  0  0  0
    6.5955   21.0964  -15.1887 N   0  0  0  0  0  0  0  0  0  0  0  0
    7.3082   19.8180  -15.0094 C   0  0  0  0  0  0  0  0  0  0  0  0
    6.7206   19.0038  -13.8403 C   0  0  0  0  0  0  0  0  0  0  0  0
    7.1499   21.8355  -16.3266 C   0  0  0  0  0  0  0  0  0  0  0  0
    6.4607    7.2836   -2.1634 C   0  0  0  0  0  0  0  0  0  0  0  0
    6.5455    8.4285   -1.1510 C   0  0  0  0  0  0  0  0  0  0  0  0
    5.6079    9.1216   -0.7514 O   0  0  0  0  0  0  0  0  0  0  0  0
    7.8663    8.6573   -0.7923 N   0  0  0  0  0  0  0  0  0  0  0  0
    3.1984    5.1446    1.2529 C   0  0  0  0  0  0  0  0  0  0  0  0
    2.6676    4.5756    2.5717 C   0  0  0  0  0  0  0  0  0  0  0  0
    3.4021    5.0344    3.8177 C   0  0  0  0  0  0  0  0  0  0  0  0
    0.0866   -0.7348   -0.3312 H   0  0  0  0  0  0  0  0  0  0  0  0
    0.2172    1.0085   -0.0611 H   0  0  0  0  0  0  0  0  0  0  0  0
    0.3435   -0.1124    1.3106 H   0  0  0  0  0  0  0  0  0  0  0  0
    2.2651    0.0435   -1.0443 H   0  0  0  0  0  0  0  0  0  0  0  0
    2.4637   -1.0434    0.3453 H   0  0  0  0  0  0  0  0  0  0  0  0
    2.6312    0.9502    1.8588 H   0  0  0  0  0  0  0  0  0  0  0  0
    2.4384    2.0104    0.4607 H   0  0  0  0  0  0  0  0  0  0  0  0
    6.8419    1.6687   -0.1733 H   0  0  0  0  0  0  0  0  0  0  0  0
    6.8072    0.4525   -1.3979 H   0  0  0  0  0  0  0  0  0  0  0  0
    5.2075   -0.4274    1.7328 H   0  0  0  0  0  0  0  0  0  0  0  0
    6.3640   -1.6959    3.7912 H   0  0  0  0  0  0  0  0  0  0  0  0
    6.1836   -3.0630    2.6972 H   0  0  0  0  0  0  0  0  0  0  0  0
    3.3606   -0.5469    4.3023 H   0  0  0  0  0  0  0  0  0  0  0  0
    1.3939   -1.3968    6.0034 H   0  0  0  0  0  0  0  0  0  0  0  0
    2.8509   -1.3311    6.9859 H   0  0  0  0  0  0  0  0  0  0  0  0
    1.0060   -3.7791    6.7361 H   0  0  0  0  0  0  0  0  0  0  0  0
    0.7303   -2.4921    7.8933 H   0  0  0  0  0  0  0  0  0  0  0  0
    3.0743   -4.4484    7.9653 H   0  0  0  0  0  0  0  0  0  0  0  0
    1.5902   -4.4946    8.8940 H   0  0  0  0  0  0  0  0  0  0  0  0
    3.2969   -3.7230   10.3477 H   0  0  0  0  0  0  0  0  0  0  0  0
    2.1339   -2.4339   10.0943 H   0  0  0  0  0  0  0  0  0  0  0  0
    3.1006   -0.2460    9.3392 H   0  0  0  0  0  0  0  0  0  0  0  0
    4.8547   -0.1535    9.2237 H   0  0  0  0  0  0  0  0  0  0  0  0
    3.2794   -1.0814   11.7036 H   0  0  0  0  0  0  0  0  0  0  0  0
    4.0686    0.4667   11.5110 H   0  0  0  0  0  0  0  0  0  0  0  0
    6.2746   -0.6540   11.2924 H   0  0  0  0  0  0  0  0  0  0  0  0
    5.4770   -2.2520   11.5040 H   0  0  0  0  0  0  0  0  0  0  0  0
    7.7034   -2.2571   12.0711 H   0  0  0  0  0  0  0  0  0  0  0  0
    9.6541   -2.8517   13.2900 H   0  0  0  0  0  0  0  0  0  0  0  0
    7.8908   -1.4381   16.9725 H   0  0  0  0  0  0  0  0  0  0  0  0
    5.8818   -0.7858   15.6845 H   0  0  0  0  0  0  0  0  0  0  0  0
   10.3552   -4.3561   14.5809 H   0  0  0  0  0  0  0  0  0  0  0  0
   13.8394   -4.7428   15.8041 H   0  0  0  0  0  0  0  0  0  0  0  0
   11.7239   -6.6340   16.7810 H   0  0  0  0  0  0  0  0  0  0  0  0
   12.4006   -3.6240   19.3468 H   0  0  0  0  0  0  0  0  0  0  0  0
   14.6284   -5.1737   20.2412 H   0  0  0  0  0  0  0  0  0  0  0  0
   15.8166   -6.8967   21.3708 H   0  0  0  0  0  0  0  0  0  0  0  0
   13.2890   -9.8816   19.5099 H   0  0  0  0  0  0  0  0  0  0  0  0
   12.1015   -8.1424   18.4188 H   0  0  0  0  0  0  0  0  0  0  0  0
   15.5666   -9.9455   23.1734 H   0  0  0  0  0  0  0  0  0  0  0  0
   16.2690   -8.4021   22.7197 H   0  0  0  0  0  0  0  0  0  0  0  0
   18.0280   -9.9456   23.3994 H   0  0  0  0  0  0  0  0  0  0  0  0
   18.2245   -9.4976   21.6961 H   0  0  0  0  0  0  0  0  0  0  0  0
   16.8243  -12.7143   20.4819 H   0  0  0  0  0  0  0  0  0  0  0  0
   17.5118  -11.1824   19.9320 H   0  0  0  0  0  0  0  0  0  0  0  0
   14.8137  -11.5888   21.3476 H   0  0  0  0  0  0  0  0  0  0  0  0
   15.1001  -11.1486   19.6545 H   0  0  0  0  0  0  0  0  0  0  0  0
   19.3607  -11.9456   23.0169 H   0  0  0  0  0  0  0  0  0  0  0  0
   19.5557  -11.5420   21.3003 H   0  0  0  0  0  0  0  0  0  0  0  0
   18.8816  -13.1104   21.7922 H   0  0  0  0  0  0  0  0  0  0  0  0
    8.9207   -0.6755   -0.9699 H   0  0  0  0  0  0  0  0  0  0  0  0
    9.5170   -0.7255    0.6715 H   0  0  0  0  0  0  0  0  0  0  0  0
    8.9721    1.8093   -0.9436 H   0  0  0  0  0  0  0  0  0  0  0  0
   10.5251    1.1107   -0.5283 H   0  0  0  0  0  0  0  0  0  0  0  0
    8.5352    2.3004    1.4702 H   0  0  0  0  0  0  0  0  0  0  0  0
   10.0749    2.9899    0.9448 H   0  0  0  0  0  0  0  0  0  0  0  0
   10.0608    1.5077    1.9129 H   0  0  0  0  0  0  0  0  0  0  0  0
    5.8900    2.1623    1.6325 H   0  0  0  0  0  0  0  0  0  0  0  0
    4.3236    2.5908    2.2133 H   0  0  0  0  0  0  0  0  0  0  0  0
    6.1880    5.6145   -0.2284 H   0  0  0  0  0  0  0  0  0  0  0  0
    5.0876    6.8230    0.4577 H   0  0  0  0  0  0  0  0  0  0  0  0
    4.1920    8.2621   -3.5842 H   0  0  0  0  0  0  0  0  0  0  0  0
    3.5146    6.6503   -3.8328 H   0  0  0  0  0  0  0  0  0  0  0  0
    4.6799    5.1532   -5.9210 H   0  0  0  0  0  0  0  0  0  0  0  0
    6.7532    6.7561   -8.7507 H   0  0  0  0  0  0  0  0  0  0  0  0
    5.3291    5.7455   -8.5790 H   0  0  0  0  0  0  0  0  0  0  0  0
    8.2620    5.0255   -8.1071 H   0  0  0  0  0  0  0  0  0  0  0  0
    7.3191    4.5358   -9.4939 H   0  0  0  0  0  0  0  0  0  0  0  0
    6.7699    3.5292   -6.6439 H   0  0  0  0  0  0  0  0  0  0  0  0
    7.9565    2.8518   -7.7334 H   0  0  0  0  0  0  0  0  0  0  0  0
    6.2732    1.3610   -7.9272 H   0  0  0  0  0  0  0  0  0  0  0  0
    6.1369    2.3035   -9.4158 H   0  0  0  0  0  0  0  0  0  0  0  0
    3.3645    0.7595   -8.3811 H   0  0  0  0  0  0  0  0  0  0  0  0
    3.9570    1.5622   -9.8401 H   0  0  0  0  0  0  0  0  0  0  0  0
    1.6970    2.6066   -8.0253 H   0  0  0  0  0  0  0  0  0  0  0  0
    1.5017    1.8582   -9.5948 H   0  0  0  0  0  0  0  0  0  0  0  0
    2.7399    3.6274  -10.6984 H   0  0  0  0  0  0  0  0  0  0  0  0
    3.0818    4.4394   -9.1407 H   0  0  0  0  0  0  0  0  0  0  0  0
    2.9301    5.4709  -11.6384 H   0  0  0  0  0  0  0  0  0  0  0  0
    2.8656    7.5743  -12.6677 H   0  0  0  0  0  0  0  0  0  0  0  0
   -0.6145    8.7279  -10.3709 H   0  0  0  0  0  0  0  0  0  0  0  0
   -0.5845    6.4900   -9.3418 H   0  0  0  0  0  0  0  0  0  0  0  0
    3.3942    9.4801  -12.4535 H   0  0  0  0  0  0  0  0  0  0  0  0
    3.2016   11.9210  -15.2714 H   0  0  0  0  0  0  0  0  0  0  0  0
    4.4135   12.6350  -12.6168 H   0  0  0  0  0  0  0  0  0  0  0  0
    0.5635   13.7998  -12.9183 H   0  0  0  0  0  0  0  0  0  0  0  0
    1.6371   16.0342  -14.4315 H   0  0  0  0  0  0  0  0  0  0  0  0
    2.7895   18.1225  -14.8089 H   0  0  0  0  0  0  0  0  0  0  0  0
    6.1004   16.8061  -12.4104 H   0  0  0  0  0  0  0  0  0  0  0  0
    4.9721   14.7276  -12.0260 H   0  0  0  0  0  0  0  0  0  0  0  0
    4.6392   20.6627  -13.2713 H   0  0  0  0  0  0  0  0  0  0  0  0
    3.4690   19.9823  -14.3673 H   0  0  0  0  0  0  0  0  0  0  0  0
    4.6337   21.8169  -15.4737 H   0  0  0  0  0  0  0  0  0  0  0  0
    4.9815   20.2940  -16.3103 H   0  0  0  0  0  0  0  0  0  0  0  0
    8.3655   20.0106  -14.8093 H   0  0  0  0  0  0  0  0  0  0  0  0
    7.2504   19.2170  -15.9267 H   0  0  0  0  0  0  0  0  0  0  0  0
    6.8962   19.5342  -12.8888 H   0  0  0  0  0  0  0  0  0  0  0  0
    7.2619   18.0550  -13.7955 H   0  0  0  0  0  0  0  0  0  0  0  0
    6.6509   22.8071  -16.4321 H   0  0  0  0  0  0  0  0  0  0  0  0
    7.0408   21.2928  -17.2720 H   0  0  0  0  0  0  0  0  0  0  0  0
    8.2120   22.0481  -16.1731 H   0  0  0  0  0  0  0  0  0  0  0  0
    6.9420    7.6527   -3.0691 H   0  0  0  0  0  0  0  0  0  0  0  0
    7.0864    6.4511   -1.8270 H   0  0  0  0  0  0  0  0  0  0  0  0
    8.5864    8.0142   -1.1099 H   0  0  0  0  0  0  0  0  0  0  0  0
    8.1030    9.3451   -0.0907 H   0  0  0  0  0  0  0  0  0  0  0  0
    2.4828    4.8670    0.4743 H   0  0  0  0  0  0  0  0  0  0  0  0
    3.1558    6.2374    1.3593 H   0  0  0  0  0  0  0  0  0  0  0  0
    2.5908    3.4866    2.5468 H   0  0  0  0  0  0  0  0  0  0  0  0
    1.6308    4.9248    2.6686 H   0  0  0  0  0  0  0  0  0  0  0  0
    4.4383    4.6883    3.8315 H   0  0  0  0  0  0  0  0  0  0  0  0
    2.8988    4.6367    4.7074 H   0  0  0  0  0  0  0  0  0  0  0  0
    3.3927    6.1264    3.9017 H   0  0  0  0  0  0  0  0  0  0  0  0
  1  2  1  0  0  0  0
  1118  1  0  0  0  0
  1119  1  0  0  0  0
  1120  1  0  0  0  0
  2  3  1  0  0  0  0
  2121  1  0  0  0  0
  2122  1  0  0  0  0
  3  4  1  0  0  0  0
  3123  1  0  0  0  0
  3124  1  0  0  0  0
  4  5  1  0  0  0  0
  4 59  1  0  0  0  0
  5  6  2  0  0  0  0
  5  7  1  0  0  0  0
  7  8  1  0  0  0  0
  7125  1  0  0  0  0
  7126  1  0  0  0  0
  8  9  1  0  0  0  0
  8 56  1  0  0  0  0
  9 10  2  0  0  0  0
  9 11  1  0  0  0  0
 11 12  1  0  0  0  0
 11127  1  0  0  0  0
 12 13  1  0  0  0  0
 12128  1  0  0  0  0
 12129  1  0  0  0  0
 13 14  1  0  0  0  0
 13 17  2  0  0  0  0
 14 15  2  0  0  0  0
 15 16  1  0  0  0  0
 16 17  1  0  0  0  0
 16 18  1  0  0  0  0
 17130  1  0  0  0  0
 18 19  1  0  0  0  0
 18131  1  0  0  0  0
 18132  1  0  0  0  0
 19 20  1  0  0  0  0
 19133  1  0  0  0  0
 19134  1  0  0  0  0
 20 21  1  0  0  0  0
 20135  1  0  0  0  0
 20136  1  0  0  0  0
 21 22  1  0  0  0  0
 21137  1  0  0  0  0
 21138  1  0  0  0  0
 22 23  2  0  0  0  0
 22 24  1  0  0  0  0
 24 25  1  0  0  0  0
 24139  1  0  0  0  0
 24140  1  0  0  0  0
 25 26  1  0  0  0  0
 25141  1  0  0  0  0
 25142  1  0  0  0  0
 26 27  1  0  0  0  0
 26143  1  0  0  0  0
 26144  1  0  0  0  0
 27 28  1  0  0  0  0
 28 29  1  0  0  0  0
 28 33  2  0  0  0  0
 29 30  2  0  0  0  0
 29145  1  0  0  0  0
 30 31  1  0  0  0  0
 30146  1  0  0  0  0
 31 32  2  0  0  0  0
 31 34  1  0  0  0  0
 32 33  1  0  0  0  0
 32147  1  0  0  0  0
 33148  1  0  0  0  0
 34 35  2  0  0  0  0
 34 38  1  0  0  0  0
 35 36  1  0  0  0  0
 36 37  1  0  0  0  0
 36 42  2  0  0  0  0
 37 38  1  0  0  0  0
 37 39  2  0  0  0  0
 38149  1  0  0  0  0
 39 40  1  0  0  0  0
 39150  1  0  0  0  0
 40 41  2  0  0  0  0
 40151  1  0  0  0  0
 41 42  1  0  0  0  0
 41 43  1  0  0  0  0
 42152  1  0  0  0  0
 43 44  1  0  0  0  0
 43 48  2  0  0  0  0
 44 45  2  0  0  0  0
 44153  1  0  0  0  0
 45 46  1  0  0  0  0
 45154  1  0  0  0  0
 46 47  2  0  0  0  0
 46 49  1  0  0  0  0
 47 48  1  0  0  0  0
 47155  1  0  0  0  0
 48156  1  0  0  0  0
 49 50  1  0  0  0  0
 49 54  1  0  0  0  0
 50 51  1  0  0  0  0
 50157  1  0  0  0  0
 50158  1  0  0  0  0
 51 52  1  0  0  0  0
 51159  1  0  0  0  0
 51160  1  0  0  0  0
 52 53  1  0  0  0  0
 52 55  1  0  0  0  0
 53 54  1  0  0  0  0
 53161  1  0  0  0  0
 53162  1  0  0  0  0
 54163  1  0  0  0  0
 54164  1  0  0  0  0
 55165  1  0  0  0  0
 55166  1  0  0  0  0
 55167  1  0  0  0  0
 56 57  1  0  0  0  0
 56168  1  0  0  0  0
 56169  1  0  0  0  0
 57 58  1  0  0  0  0
 57170  1  0  0  0  0
 57171  1  0  0  0  0
 58172  1  0  0  0  0
 58173  1  0  0  0  0
 58174  1  0  0  0  0
 59 60  1  0  0  0  0
 59175  1  0  0  0  0
 59176  1  0  0  0  0
 60 61  2  0  0  0  0
 60 62  1  0  0  0  0
 62 63  1  0  0  0  0
 62115  1  0  0  0  0
 63 64  1  0  0  0  0
 63177  1  0  0  0  0
 63178  1  0  0  0  0
 64 65  2  0  0  0  0
 64 66  1  0  0  0  0
 66 67  1  0  0  0  0
 66111  1  0  0  0  0
 67 68  1  0  0  0  0
 67179  1  0  0  0  0
 67180  1  0  0  0  0
 68 69  1  0  0  0  0
 68 72  2  0  0  0  0
 69 70  2  0  0  0  0
 70 71  1  0  0  0  0
 71 72  1  0  0  0  0
 71 73  1  0  0  0  0
 72181  1  0  0  0  0
 73 74  1  0  0  0  0
 73182  1  0  0  0  0
 73183  1  0  0  0  0
 74 75  1  0  0  0  0
 74184  1  0  0  0  0
 74185  1  0  0  0  0
 75 76  1  0  0  0  0
 75186  1  0  0  0  0
 75187  1  0  0  0  0
 76 77  1  0  0  0  0
 76188  1  0  0  0  0
 76189  1  0  0  0  0
 77 78  2  0  0  0  0
 77 79  1  0  0  0  0
 79 80  1  0  0  0  0
 79190  1  0  0  0  0
 79191  1  0  0  0  0
 80 81  1  0  0  0  0
 80192  1  0  0  0  0
 80193  1  0  0  0  0
 81 82  1  0  0  0  0
 81194  1  0  0  0  0
 81195  1  0  0  0  0
 82 83  1  0  0  0  0
 83 84  1  0  0  0  0
 83 88  2  0  0  0  0
 84 85  2  0  0  0  0
 84196  1  0  0  0  0
 85 86  1  0  0  0  0
 85197  1  0  0  0  0
 86 87  2  0  0  0  0
 86 89  1  0  0  0  0
 87 88  1  0  0  0  0
 87198  1  0  0  0  0
 88199  1  0  0  0  0
 89 90  2  0  0  0  0
 89 93  1  0  0  0  0
 90 91  1  0  0  0  0
 91 92  1  0  0  0  0
 91 97  2  0  0  0  0
 92 93  1  0  0  0  0
 92 94  2  0  0  0  0
 93200  1  0  0  0  0
 94 95  1  0  0  0  0
 94201  1  0  0  0  0
 95 96  2  0  0  0  0
 95202  1  0  0  0  0
 96 97  1  0  0  0  0
 96 98  1  0  0  0  0
 97203  1  0  0  0  0
 98 99  1  0  0  0  0
 98103  2  0  0  0  0
 99100  2  0  0  0  0
 99204  1  0  0  0  0
100101  1  0  0  0  0
100205  1  0  0  0  0
101102  2  0  0  0  0
101104  1  0  0  0  0
102103  1  0  0  0  0
102206  1  0  0  0  0
103207  1  0  0  0  0
104105  1  0  0  0  0
104109  1  0  0  0  0
105106  1  0  0  0  0
105208  1  0  0  0  0
105209  1  0  0  0  0
106107  1  0  0  0  0
106210  1  0  0  0  0
106211  1  0  0  0  0
107108  1  0  0  0  0
107110  1  0  0  0  0
108109  1  0  0  0  0
108212  1  0  0  0  0
108213  1  0  0  0  0
109214  1  0  0  0  0
109215  1  0  0  0  0
110216  1  0  0  0  0
110217  1  0  0  0  0
110218  1  0  0  0  0
111112  1  0  0  0  0
111219  1  0  0  0  0
111220  1  0  0  0  0
112113  2  0  0  0  0
112114  1  0  0  0  0
114221  1  0  0  0  0
114222  1  0  0  0  0
115116  1  0  0  0  0
115223  1  0  0  0  0
115224  1  0  0  0  0
116117  1  0  0  0  0
116225  1  0  0  0  0
116226  1  0  0  0  0
117227  1  0  0  0  0
117228  1  0  0  0  0
117229  1  0  0  0  0
M  END
$$$$
Target_lig_1279
 OpenBabel04172506223D

277288  0  0  0  0  0  0  0  0999 V2000
    1.5487    0.9997    0.1376 C   0  0  0  0  0  0  0  0  0  0  0  0
    1.8358   -0.1791   -0.7418 C   0  0  0  0  0  0  0  0  0  0  0  0
    2.8621    0.1381   -1.8363 C   0  0  0  0  0  0  0  0  0  0  0  0
    4.3069    0.3476   -1.5714 N   0  0  0  0  0  0  0  0  0  0  0  0
    4.9433   -0.0303   -0.4107 C   0  0  0  0  0  0  0  0  0  0  0  0
    4.3585   -0.6676    0.4764 O   0  0  0  0  0  0  0  0  0  0  0  0
    6.4396    0.2301   -0.1396 C   0  0  0  0  0  0  0  0  0  0  0  0
    7.3217   -0.9576   -0.2583 N   0  0  0  0  0  0  0  0  0  0  0  0
    7.1680   -2.2222    0.3348 C   0  0  0  0  0  0  0  0  0  0  0  0
    8.0078   -3.1243    0.2653 O   0  0  0  0  0  0  0  0  0  0  0  0
    6.0060   -2.4440    1.0123 N   0  0  0  0  0  0  0  0  0  0  0  0
    5.5885   -3.7861    1.3301 C   0  0  0  0  0  0  0  0  0  0  0  0
    4.1341   -3.7588    1.6554 C   0  0  0  0  0  0  0  0  0  0  0  0
    3.2617   -4.5732    0.9885 N   0  0  0  0  0  0  0  0  0  0  0  0
    2.0311   -4.1895    1.2899 N   0  0  0  0  0  0  0  0  0  0  0  0
    2.1115   -3.1456    2.1451 N   0  0  0  0  0  0  0  0  0  0  0  0
    3.4094   -2.9010    2.4724 C   0  0  0  0  0  0  0  0  0  0  0  0
    0.9113   -2.3608    2.3506 C   0  0  0  0  0  0  0  0  0  0  0  0
    0.6215   -1.6468    3.6847 C   0  0  0  0  0  0  0  0  0  0  0  0
    1.4426   -0.4378    4.1790 C   0  0  0  0  0  0  0  0  0  0  0  0
    1.1808    0.8718    3.4453 C   0  0  0  0  0  0  0  0  0  0  0  0
    1.8252    2.1152    4.0516 C   0  0  0  0  0  0  0  0  0  0  0  0
    3.0406    2.1633    4.2467 O   0  0  0  0  0  0  0  0  0  0  0  0
    0.9209    3.2687    4.4531 C   0  0  0  0  0  0  0  0  0  0  0  0
    1.1952    4.6161    3.8067 C   0  0  0  0  0  0  0  0  0  0  0  0
    0.7456    4.7967    2.3734 C   0  0  0  0  0  0  0  0  0  0  0  0
    1.4882    4.0958    1.4053 O   0  0  0  0  0  0  0  0  0  0  0  0
    1.9287    4.9252    0.3862 C   0  0  0  0  0  0  0  0  0  0  0  0
    3.3204    4.8575    0.1362 C   0  0  0  0  0  0  0  0  0  0  0  0
    3.7141    5.4846   -1.0824 C   0  0  0  0  0  0  0  0  0  0  0  0
    2.9451    6.1939   -2.0386 C   0  0  0  0  0  0  0  0  0  0  0  0
    1.6267    6.3194   -1.6250 C   0  0  0  0  0  0  0  0  0  0  0  0
    1.0461    5.7019   -0.4764 C   0  0  0  0  0  0  0  0  0  0  0  0
   -0.4971    5.9609   -0.3308 C   0  0  0  0  0  0  0  0  0  0  0  0
   -1.1693    6.6569   -1.5760 C   0  0  0  0  0  0  0  0  0  0  0  0
   -1.3130    4.6606   -0.1862 C   0  0  0  0  0  0  0  0  0  0  0  0
   -0.7627    7.0231    0.7667 C   0  0  0  0  0  0  0  0  0  0  0  0
    3.2934    6.6274   -3.4914 C   0  0  0  0  0  0  0  0  0  0  0  0
    4.4292    6.6615   -4.2100 N   0  0  0  0  0  0  0  0  0  0  0  0
    4.0861    6.9913   -5.5348 C   0  0  0  0  0  0  0  0  0  0  0  0
    2.7085    6.9027   -5.6768 C   0  0  0  0  0  0  0  0  0  0  0  0
    2.2955    7.0507   -4.3742 N   0  0  0  0  0  0  0  0  0  0  0  0
    2.0653    7.1715   -6.8851 C   0  0  0  0  0  0  0  0  0  0  0  0
    2.6317    8.3964   -7.2148 C   0  0  0  0  0  0  0  0  0  0  0  0
    4.0412    8.5692   -7.2526 C   0  0  0  0  0  0  0  0  0  0  0  0
    4.8051    7.5421   -6.6298 C   0  0  0  0  0  0  0  0  0  0  0  0
    4.6025    9.9475   -7.4472 C   0  0  0  0  0  0  0  0  0  0  0  0
    5.9675   10.2407   -7.4287 C   0  0  0  0  0  0  0  0  0  0  0  0
    6.4200   11.5582   -7.2163 C   0  0  0  0  0  0  0  0  0  0  0  0
    5.5503   12.6447   -7.0314 C   0  0  0  0  0  0  0  0  0  0  0  0
    4.2015   12.3677   -7.2142 C   0  0  0  0  0  0  0  0  0  0  0  0
    3.7482   11.0669   -7.4584 C   0  0  0  0  0  0  0  0  0  0  0  0
    6.0130   13.8826   -6.6122 N   0  0  0  0  0  0  0  0  0  0  0  0
    7.2699   14.3994   -7.1555 C   0  0  0  0  0  0  0  0  0  0  0  0
    7.9859   15.2187   -6.0751 C   0  0  0  0  0  0  0  0  0  0  0  0
    7.1364   16.3324   -5.6315 N   0  0  0  0  0  0  0  0  0  0  0  0
    5.8478   15.8282   -5.1210 C   0  0  0  0  0  0  0  0  0  0  0  0
    5.1060   14.9511   -6.1518 C   0  0  0  0  0  0  0  0  0  0  0  0
    7.8353   17.1256   -4.6138 C   0  0  0  0  0  0  0  0  0  0  0  0
    4.4373    4.0087    0.9455 C   0  0  0  0  0  0  0  0  0  0  0  0
    4.0045    2.5819    1.2227 C   0  0  0  0  0  0  0  0  0  0  0  0
    5.8603    3.8033    0.3377 C   0  0  0  0  0  0  0  0  0  0  0  0
    4.7947    4.6208    2.3035 C   0  0  0  0  0  0  0  0  0  0  0  0
    8.6908   -0.6505   -0.7073 C   0  0  0  0  0  0  0  0  0  0  0  0
    9.5250    0.1926    0.2738 C   0  0  0  0  0  0  0  0  0  0  0  0
    9.6999   -0.4231    1.6550 C   0  0  0  0  0  0  0  0  0  0  0  0
    5.0256    1.1050   -2.6322 C   0  0  0  0  0  0  0  0  0  0  0  0
    4.8496    2.6133   -2.4461 C   0  0  0  0  0  0  0  0  0  0  0  0
    3.9000    3.0012   -1.7545 O   0  0  0  0  0  0  0  0  0  0  0  0
    5.5390    3.4991   -3.3145 N   0  0  0  0  0  0  0  0  0  0  0  0
    6.1928    4.8811   -2.9206 C   0  0  0  0  0  0  0  0  0  0  0  0
    7.4765    5.1781   -2.0655 C   0  0  0  0  0  0  0  0  0  0  0  0
    7.4703    6.0504   -1.1821 O   0  0  0  0  0  0  0  0  0  0  0  0
    8.6208    4.4810   -2.3837 N   0  0  0  0  0  0  0  0  0  0  0  0
    9.8265    4.6900   -1.6046 C   0  0  0  0  0  0  0  0  0  0  0  0
   10.6396    5.8294   -2.1510 C   0  0  0  0  0  0  0  0  0  0  0  0
   10.1369    6.6432   -3.1430 N   0  0  0  0  0  0  0  0  0  0  0  0
   11.0681    7.5033   -3.5026 N   0  0  0  0  0  0  0  0  0  0  0  0
   12.1456    7.2662   -2.7450 N   0  0  0  0  0  0  0  0  0  0  0  0
   11.9279    6.2383   -1.8694 C   0  0  0  0  0  0  0  0  0  0  0  0
   13.2599    8.1810   -2.8163 C   0  0  0  0  0  0  0  0  0  0  0  0
   14.0536    8.1817   -4.1276 C   0  0  0  0  0  0  0  0  0  0  0  0
   13.3686    8.4167   -5.4873 C   0  0  0  0  0  0  0  0  0  0  0  0
   12.5996    9.7019   -5.8239 C   0  0  0  0  0  0  0  0  0  0  0  0
   13.3796   11.0000   -5.7691 C   0  0  0  0  0  0  0  0  0  0  0  0
   14.0029   11.3146   -4.7524 O   0  0  0  0  0  0  0  0  0  0  0  0
   13.3739   11.9012   -6.9954 C   0  0  0  0  0  0  0  0  0  0  0  0
   14.7922   12.0399   -7.5186 C   0  0  0  0  0  0  0  0  0  0  0  0
   15.4020   10.6960   -7.9326 C   0  0  0  0  0  0  0  0  0  0  0  0
   15.0239   10.4705   -9.2634 O   0  0  0  0  0  0  0  0  0  0  0  0
   15.8668   10.1925  -10.2939 C   0  0  0  0  0  0  0  0  0  0  0  0
   17.2678   10.4849  -10.4297 C   0  0  0  0  0  0  0  0  0  0  0  0
   17.9202    9.9315  -11.6002 C   0  0  0  0  0  0  0  0  0  0  0  0
   17.2747    9.2094  -12.6035 C   0  0  0  0  0  0  0  0  0  0  0  0
   15.8981    9.0010  -12.4167 C   0  0  0  0  0  0  0  0  0  0  0  0
   15.1491    9.5018  -11.3355 C   0  0  0  0  0  0  0  0  0  0  0  0
   13.6018    9.1920  -11.3429 C   0  0  0  0  0  0  0  0  0  0  0  0
   13.3449    7.8534  -10.6109 C   0  0  0  0  0  0  0  0  0  0  0  0
   12.7242   10.2914  -10.7007 C   0  0  0  0  0  0  0  0  0  0  0  0
   12.9917    9.0355  -12.7744 C   0  0  0  0  0  0  0  0  0  0  0  0
   17.9496    8.6533  -13.8163 C   0  0  0  0  0  0  0  0  0  0  0  0
   19.1767    8.7698  -14.3435 N   0  0  0  0  0  0  0  0  0  0  0  0
   19.1296    8.0653  -15.5562 C   0  0  0  0  0  0  0  0  0  0  0  0
   18.0410    7.1993  -15.4989 C   0  0  0  0  0  0  0  0  0  0  0  0
   17.2018    7.9460  -14.7264 N   0  0  0  0  0  0  0  0  0  0  0  0
   17.7575    6.2983  -16.5069 C   0  0  0  0  0  0  0  0  0  0  0  0
   17.7911    7.0974  -17.6419 C   0  0  0  0  0  0  0  0  0  0  0  0
   18.8819    7.9520  -17.9410 C   0  0  0  0  0  0  0  0  0  0  0  0
   19.7536    8.2306  -16.8360 C   0  0  0  0  0  0  0  0  0  0  0  0
   18.8093    8.7237  -19.2444 C   0  0  0  0  0  0  0  0  0  0  0  0
   19.6832    9.7335  -19.6435 C   0  0  0  0  0  0  0  0  0  0  0  0
   19.3695   10.6061  -20.7377 C   0  0  0  0  0  0  0  0  0  0  0  0
   18.1689   10.5367  -21.4882 C   0  0  0  0  0  0  0  0  0  0  0  0
   17.3856    9.4286  -21.1747 C   0  0  0  0  0  0  0  0  0  0  0  0
   17.7167    8.5363  -20.1263 C   0  0  0  0  0  0  0  0  0  0  0  0
   17.7616   11.5015  -22.3994 N   0  0  0  0  0  0  0  0  0  0  0  0
   18.7380   12.2064  -23.2546 C   0  0  0  0  0  0  0  0  0  0  0  0
   18.3318   13.6921  -23.4125 C   0  0  0  0  0  0  0  0  0  0  0  0
   16.9879   13.8656  -24.0131 N   0  0  0  0  0  0  0  0  0  0  0  0
   16.0084   13.1180  -23.1823 C   0  0  0  0  0  0  0  0  0  0  0  0
   16.3837   11.6174  -22.9475 C   0  0  0  0  0  0  0  0  0  0  0  0
   16.6457   15.2859  -24.0939 C   0  0  0  0  0  0  0  0  0  0  0  0
   18.2329   11.2731   -9.4518 C   0  0  0  0  0  0  0  0  0  0  0  0
   18.8364   10.2424   -8.4587 C   0  0  0  0  0  0  0  0  0  0  0  0
   19.4168   11.9229  -10.2485 C   0  0  0  0  0  0  0  0  0  0  0  0
   17.7590   12.5426   -8.6880 C   0  0  0  0  0  0  0  0  0  0  0  0
    8.7983    4.2574   -3.7999 C   0  0  0  0  0  0  0  0  0  0  0  0
    8.3716    2.8427   -4.0760 C   0  0  0  0  0  0  0  0  0  0  0  0
    8.3344    1.9484   -3.2624 O   0  0  0  0  0  0  0  0  0  0  0  0
    8.0425    2.6938   -5.3679 N   0  0  0  0  0  0  0  0  0  0  0  0
    4.7551    3.5616   -4.5471 C   0  0  0  0  0  0  0  0  0  0  0  0
    3.2109    3.2479   -4.6768 C   0  0  0  0  0  0  0  0  0  0  0  0
    2.0008    3.7362   -3.8692 C   0  0  0  0  0  0  0  0  0  0  0  0
    0.5904    0.9278    0.6601 H   0  0  0  0  0  0  0  0  0  0  0  0
    1.5857    1.9655   -0.3722 H   0  0  0  0  0  0  0  0  0  0  0  0
    2.3361    0.9755    0.8664 H   0  0  0  0  0  0  0  0  0  0  0  0
    0.8863   -0.4419   -1.2097 H   0  0  0  0  0  0  0  0  0  0  0  0
    2.1334   -1.0449   -0.1416 H   0  0  0  0  0  0  0  0  0  0  0  0
    2.4969    1.0469   -2.3274 H   0  0  0  0  0  0  0  0  0  0  0  0
    2.8009   -0.6605   -2.5797 H   0  0  0  0  0  0  0  0  0  0  0  0
    6.5439    0.6036    0.8863 H   0  0  0  0  0  0  0  0  0  0  0  0
    6.8198    1.0208   -0.7879 H   0  0  0  0  0  0  0  0  0  0  0  0
    5.2571   -1.7695    0.9122 H   0  0  0  0  0  0  0  0  0  0  0  0
    6.1991   -4.1649    2.1544 H   0  0  0  0  0  0  0  0  0  0  0  0
    5.7635   -4.4187    0.4501 H   0  0  0  0  0  0  0  0  0  0  0  0
    3.7270   -2.0930    3.1098 H   0  0  0  0  0  0  0  0  0  0  0  0
    0.0980   -3.0933    2.2364 H   0  0  0  0  0  0  0  0  0  0  0  0
    0.8163   -1.6828    1.4998 H   0  0  0  0  0  0  0  0  0  0  0  0
    0.6521   -2.4077    4.4726 H   0  0  0  0  0  0  0  0  0  0  0  0
   -0.4233   -1.3154    3.6181 H   0  0  0  0  0  0  0  0  0  0  0  0
    2.5115   -0.6603    4.1464 H   0  0  0  0  0  0  0  0  0  0  0  0
    1.1964   -0.2791    5.2350 H   0  0  0  0  0  0  0  0  0  0  0  0
    0.1212    1.0510    3.2436 H   0  0  0  0  0  0  0  0  0  0  0  0
    1.6721    0.7483    2.5040 H   0  0  0  0  0  0  0  0  0  0  0  0
    1.0798    3.3999    5.5298 H   0  0  0  0  0  0  0  0  0  0  0  0
   -0.1284    2.9922    4.3217 H   0  0  0  0  0  0  0  0  0  0  0  0
    2.2421    4.8958    3.8977 H   0  0  0  0  0  0  0  0  0  0  0  0
    0.6241    5.3682    4.3680 H   0  0  0  0  0  0  0  0  0  0  0  0
    0.8774    5.8574    2.2088 H   0  0  0  0  0  0  0  0  0  0  0  0
   -0.3045    4.5001    2.2938 H   0  0  0  0  0  0  0  0  0  0  0  0
    4.6710    5.0993   -1.2962 H   0  0  0  0  0  0  0  0  0  0  0  0
    0.9783    6.8452   -2.3013 H   0  0  0  0  0  0  0  0  0  0  0  0
   -1.0984    6.0443   -2.4817 H   0  0  0  0  0  0  0  0  0  0  0  0
   -0.7348    7.6444   -1.7793 H   0  0  0  0  0  0  0  0  0  0  0  0
   -2.2348    6.8431   -1.3930 H   0  0  0  0  0  0  0  0  0  0  0  0
   -1.4628    4.1852   -1.1652 H   0  0  0  0  0  0  0  0  0  0  0  0
   -2.3075    4.8739    0.2224 H   0  0  0  0  0  0  0  0  0  0  0  0
   -0.8528    3.8881    0.4269 H   0  0  0  0  0  0  0  0  0  0  0  0
   -0.0448    7.8493    0.6808 H   0  0  0  0  0  0  0  0  0  0  0  0
   -0.7403    6.6581    1.7891 H   0  0  0  0  0  0  0  0  0  0  0  0
   -1.7651    7.4540    0.6770 H   0  0  0  0  0  0  0  0  0  0  0  0
    1.3470    7.2894   -4.1459 H   0  0  0  0  0  0  0  0  0  0  0  0
    2.2777    6.4415   -7.6910 H   0  0  0  0  0  0  0  0  0  0  0  0
    2.0260    9.2570   -6.9197 H   0  0  0  0  0  0  0  0  0  0  0  0
    5.8887    7.5472   -6.6451 H   0  0  0  0  0  0  0  0  0  0  0  0
    6.7202    9.4605   -7.5004 H   0  0  0  0  0  0  0  0  0  0  0  0
    7.4903   11.7026   -7.1068 H   0  0  0  0  0  0  0  0  0  0  0  0
    3.4531   13.1495   -7.1321 H   0  0  0  0  0  0  0  0  0  0  0  0
    2.6753   10.9682   -7.5749 H   0  0  0  0  0  0  0  0  0  0  0  0
    7.0502   15.0347   -8.0258 H   0  0  0  0  0  0  0  0  0  0  0  0
    7.9586   13.6294   -7.5069 H   0  0  0  0  0  0  0  0  0  0  0  0
    8.9187   15.6067   -6.4980 H   0  0  0  0  0  0  0  0  0  0  0  0
    8.2427   14.5664   -5.2298 H   0  0  0  0  0  0  0  0  0  0  0  0
    5.2033   16.6782   -4.8609 H   0  0  0  0  0  0  0  0  0  0  0  0
    6.0034   15.2471   -4.2024 H   0  0  0  0  0  0  0  0  0  0  0  0
    4.7849   15.5640   -7.0039 H   0  0  0  0  0  0  0  0  0  0  0  0
    4.2062   14.5605   -5.6588 H   0  0  0  0  0  0  0  0  0  0  0  0
    8.7749   17.5215   -5.0168 H   0  0  0  0  0  0  0  0  0  0  0  0
    8.0706   16.5368   -3.7192 H   0  0  0  0  0  0  0  0  0  0  0  0
    7.2348   17.9901   -4.3106 H   0  0  0  0  0  0  0  0  0  0  0  0
    3.8096    2.0884    0.2822 H   0  0  0  0  0  0  0  0  0  0  0  0
    3.1201    2.5549    1.8390 H   0  0  0  0  0  0  0  0  0  0  0  0
    4.7646    1.9831    1.7374 H   0  0  0  0  0  0  0  0  0  0  0  0
    5.9064    3.1737   -0.5415 H   0  0  0  0  0  0  0  0  0  0  0  0
    6.5457    3.2935    1.0311 H   0  0  0  0  0  0  0  0  0  0  0  0
    6.3079    4.7612    0.1290 H   0  0  0  0  0  0  0  0  0  0  0  0
    3.9188    4.8204    2.9009 H   0  0  0  0  0  0  0  0  0  0  0  0
    5.3770    5.5384    2.1868 H   0  0  0  0  0  0  0  0  0  0  0  0
    5.4208    3.9172    2.8776 H   0  0  0  0  0  0  0  0  0  0  0  0
    8.6138   -0.1191   -1.6611 H   0  0  0  0  0  0  0  0  0  0  0  0
    9.2380   -1.5750   -0.9235 H   0  0  0  0  0  0  0  0  0  0  0  0
    9.0873    1.1913    0.3844 H   0  0  0  0  0  0  0  0  0  0  0  0
   10.5211    0.3383   -0.1634 H   0  0  0  0  0  0  0  0  0  0  0  0
    8.7476   -0.4801    2.1905 H   0  0  0  0  0  0  0  0  0  0  0  0
   10.3780    0.1932    2.2565 H   0  0  0  0  0  0  0  0  0  0  0  0
   10.1288   -1.4278    1.5932 H   0  0  0  0  0  0  0  0  0  0  0  0
    4.6118    0.7862   -3.5960 H   0  0  0  0  0  0  0  0  0  0  0  0
    6.0847    0.8435   -2.6499 H   0  0  0  0  0  0  0  0  0  0  0  0
    5.5103    5.6245   -2.5652 H   0  0  0  0  0  0  0  0  0  0  0  0
    6.4371    5.3729   -3.8673 H   0  0  0  0  0  0  0  0  0  0  0  0
   10.3972    3.7553   -1.6305 H   0  0  0  0  0  0  0  0  0  0  0  0
    9.5669    4.8903   -0.5568 H   0  0  0  0  0  0  0  0  0  0  0  0
   12.6540    5.9048   -1.1433 H   0  0  0  0  0  0  0  0  0  0  0  0
   13.9414    7.8981   -2.0052 H   0  0  0  0  0  0  0  0  0  0  0  0
   12.8727    9.1775   -2.5800 H   0  0  0  0  0  0  0  0  0  0  0  0
   14.5288    7.1927   -4.2055 H   0  0  0  0  0  0  0  0  0  0  0  0
   14.8793    8.8938   -4.0142 H   0  0  0  0  0  0  0  0  0  0  0  0
   12.6886    7.5802   -5.6821 H   0  0  0  0  0  0  0  0  0  0  0  0
   14.1649    8.3050   -6.2329 H   0  0  0  0  0  0  0  0  0  0  0  0
   11.7027    9.8239   -5.2123 H   0  0  0  0  0  0  0  0  0  0  0  0
   12.2592    9.5900   -6.8620 H   0  0  0  0  0  0  0  0  0  0  0  0
   12.9918   12.8901   -6.7113 H   0  0  0  0  0  0  0  0  0  0  0  0
   12.7038   11.5249   -7.7715 H   0  0  0  0  0  0  0  0  0  0  0  0
   15.3944   12.4968   -6.7240 H   0  0  0  0  0  0  0  0  0  0  0  0
   14.7968   12.7300   -8.3753 H   0  0  0  0  0  0  0  0  0  0  0  0
   15.0124    9.8834   -7.3243 H   0  0  0  0  0  0  0  0  0  0  0  0
   16.4603   10.6319   -7.7559 H   0  0  0  0  0  0  0  0  0  0  0  0
   18.9926   10.0355  -11.7373 H   0  0  0  0  0  0  0  0  0  0  0  0
   15.3656    8.3836  -13.1250 H   0  0  0  0  0  0  0  0  0  0  0  0
   13.6575    7.8982   -9.5625 H   0  0  0  0  0  0  0  0  0  0  0  0
   13.8786    7.0275  -11.0884 H   0  0  0  0  0  0  0  0  0  0  0  0
   12.2764    7.5997  -10.6251 H   0  0  0  0  0  0  0  0  0  0  0  0
   12.8163   10.3211   -9.6161 H   0  0  0  0  0  0  0  0  0  0  0  0
   11.6571   10.1103  -10.8807 H   0  0  0  0  0  0  0  0  0  0  0  0
   12.9656   11.2785  -11.1104 H   0  0  0  0  0  0  0  0  0  0  0  0
   13.3623    8.1556  -13.3102 H   0  0  0  0  0  0  0  0  0  0  0  0
   13.1805    9.9236  -13.3879 H   0  0  0  0  0  0  0  0  0  0  0  0
   11.9021    8.8993  -12.7257 H   0  0  0  0  0  0  0  0  0  0  0  0
   16.1999    7.9640  -14.8179 H   0  0  0  0  0  0  0  0  0  0  0  0
   18.5015    5.4840  -16.5782 H   0  0  0  0  0  0  0  0  0  0  0  0
   16.8115    7.3627  -18.0465 H   0  0  0  0  0  0  0  0  0  0  0  0
   20.6342    8.8566  -16.9174 H   0  0  0  0  0  0  0  0  0  0  0  0
   20.6134    9.9042  -19.1026 H   0  0  0  0  0  0  0  0  0  0  0  0
   20.0999   11.3917  -20.9262 H   0  0  0  0  0  0  0  0  0  0  0  0
   16.4772    9.2160  -21.7225 H   0  0  0  0  0  0  0  0  0  0  0  0
   17.0350    7.7001  -20.0031 H   0  0  0  0  0  0  0  0  0  0  0  0
   18.7585   11.7234  -24.2414 H   0  0  0  0  0  0  0  0  0  0  0  0
   19.7560   12.1677  -22.8625 H   0  0  0  0  0  0  0  0  0  0  0  0
   19.0771   14.1841  -24.0465 H   0  0  0  0  0  0  0  0  0  0  0  0
   18.3656   14.1710  -22.4238 H   0  0  0  0  0  0  0  0  0  0  0  0
   15.0247   13.1604  -23.6675 H   0  0  0  0  0  0  0  0  0  0  0  0
   15.9049   13.6029  -22.2015 H   0  0  0  0  0  0  0  0  0  0  0  0
   16.3166   11.0750  -23.9003 H   0  0  0  0  0  0  0  0  0  0  0  0
   15.6308   11.1940  -22.2705 H   0  0  0  0  0  0  0  0  0  0  0  0
   17.3735   15.8187  -24.7173 H   0  0  0  0  0  0  0  0  0  0  0  0
   16.6230   15.7712  -23.1110 H   0  0  0  0  0  0  0  0  0  0  0  0
   15.6679   15.4252  -24.5681 H   0  0  0  0  0  0  0  0  0  0  0  0
   19.5617    9.5945   -8.9627 H   0  0  0  0  0  0  0  0  0  0  0  0
   18.0913    9.5609   -8.0281 H   0  0  0  0  0  0  0  0  0  0  0  0
   19.3555   10.7350   -7.6313 H   0  0  0  0  0  0  0  0  0  0  0  0
   20.1403   11.1982  -10.6219 H   0  0  0  0  0  0  0  0  0  0  0  0
   20.0084   12.6026   -9.6185 H   0  0  0  0  0  0  0  0  0  0  0  0
   19.0284   12.5183  -11.0824 H   0  0  0  0  0  0  0  0  0  0  0  0
   17.0748   12.3936   -7.8755 H   0  0  0  0  0  0  0  0  0  0  0  0
   17.3438   13.3025   -9.3568 H   0  0  0  0  0  0  0  0  0  0  0  0
   18.6015   13.0010   -8.1473 H   0  0  0  0  0  0  0  0  0  0  0  0
    9.8277    4.3554   -4.1211 H   0  0  0  0  0  0  0  0  0  0  0  0
    8.2011    4.9392   -4.3794 H   0  0  0  0  0  0  0  0  0  0  0  0
    8.3196    3.3736   -6.0496 H   0  0  0  0  0  0  0  0  0  0  0  0
    7.9863    1.7209   -5.6963 H   0  0  0  0  0  0  0  0  0  0  0  0
    5.2192    2.7743   -5.1536 H   0  0  0  0  0  0  0  0  0  0  0  0
    5.0093    4.4732   -5.0824 H   0  0  0  0  0  0  0  0  0  0  0  0
    3.1181    2.1597   -4.6536 H   0  0  0  0  0  0  0  0  0  0  0  0
    2.9734    3.5437   -5.7061 H   0  0  0  0  0  0  0  0  0  0  0  0
    2.0401    3.5948   -2.7913 H   0  0  0  0  0  0  0  0  0  0  0  0
    1.1172    3.1668   -4.1901 H   0  0  0  0  0  0  0  0  0  0  0  0
    1.7040    4.7549   -4.0878 H   0  0  0  0  0  0  0  0  0  0  0  0
  1  2  1  0  0  0  0
  1134  1  0  0  0  0
  1135  1  0  0  0  0
  1136  1  0  0  0  0
  2  3  1  0  0  0  0
  2137  1  0  0  0  0
  2138  1  0  0  0  0
  3  4  1  0  0  0  0
  3139  1  0  0  0  0
  3140  1  0  0  0  0
  4  5  1  0  0  0  0
  4 67  1  0  0  0  0
  5  6  2  0  0  0  0
  5  7  1  0  0  0  0
  7  8  1  0  0  0  0
  7141  1  0  0  0  0
  7142  1  0  0  0  0
  8  9  1  0  0  0  0
  8 64  1  0  0  0  0
  9 10  2  0  0  0  0
  9 11  1  0  0  0  0
 11 12  1  0  0  0  0
 11143  1  0  0  0  0
 12 13  1  0  0  0  0
 12144  1  0  0  0  0
 12145  1  0  0  0  0
 13 14  1  0  0  0  0
 13 17  2  0  0  0  0
 14 15  2  0  0  0  0
 15 16  1  0  0  0  0
 16 17  1  0  0  0  0
 16 18  1  0  0  0  0
 17146  1  0  0  0  0
 18 19  1  0  0  0  0
 18147  1  0  0  0  0
 18148  1  0  0  0  0
 19 20  1  0  0  0  0
 19149  1  0  0  0  0
 19150  1  0  0  0  0
 20 21  1  0  0  0  0
 20151  1  0  0  0  0
 20152  1  0  0  0  0
 21 22  1  0  0  0  0
 21153  1  0  0  0  0
 21154  1  0  0  0  0
 22 23  2  0  0  0  0
 22 24  1  0  0  0  0
 24 25  1  0  0  0  0
 24155  1  0  0  0  0
 24156  1  0  0  0  0
 25 26  1  0  0  0  0
 25157  1  0  0  0  0
 25158  1  0  0  0  0
 26 27  1  0  0  0  0
 26159  1  0  0  0  0
 26160  1  0  0  0  0
 27 28  1  0  0  0  0
 28 29  1  0  0  0  0
 28 33  2  0  0  0  0
 29 30  2  0  0  0  0
 29 60  1  0  0  0  0
 30 31  1  0  0  0  0
 30161  1  0  0  0  0
 31 32  2  0  0  0  0
 31 38  1  0  0  0  0
 32 33  1  0  0  0  0
 32162  1  0  0  0  0
 33 34  1  0  0  0  0
 34 35  1  0  0  0  0
 34 36  1  0  0  0  0
 34 37  1  0  0  0  0
 35163  1  0  0  0  0
 35164  1  0  0  0  0
 35165  1  0  0  0  0
 36166  1  0  0  0  0
 36167  1  0  0  0  0
 36168  1  0  0  0  0
 37169  1  0  0  0  0
 37170  1  0  0  0  0
 37171  1  0  0  0  0
 38 39  2  0  0  0  0
 38 42  1  0  0  0  0
 39 40  1  0  0  0  0
 40 41  1  0  0  0  0
 40 46  2  0  0  0  0
 41 42  1  0  0  0  0
 41 43  2  0  0  0  0
 42172  1  0  0  0  0
 43 44  1  0  0  0  0
 43173  1  0  0  0  0
 44 45  2  0  0  0  0
 44174  1  0  0  0  0
 45 46  1  0  0  0  0
 45 47  1  0  0  0  0
 46175  1  0  0  0  0
 47 48  1  0  0  0  0
 47 52  2  0  0  0  0
 48 49  2  0  0  0  0
 48176  1  0  0  0  0
 49 50  1  0  0  0  0
 49177  1  0  0  0  0
 50 51  2  0  0  0  0
 50 53  1  0  0  0  0
 51 52  1  0  0  0  0
 51178  1  0  0  0  0
 52179  1  0  0  0  0
 53 54  1  0  0  0  0
 53 58  1  0  0  0  0
 54 55  1  0  0  0  0
 54180  1  0  0  0  0
 54181  1  0  0  0  0
 55 56  1  0  0  0  0
 55182  1  0  0  0  0
 55183  1  0  0  0  0
 56 57  1  0  0  0  0
 56 59  1  0  0  0  0
 57 58  1  0  0  0  0
 57184  1  0  0  0  0
 57185  1  0  0  0  0
 58186  1  0  0  0  0
 58187  1  0  0  0  0
 59188  1  0  0  0  0
 59189  1  0  0  0  0
 59190  1  0  0  0  0
 60 61  1  0  0  0  0
 60 62  1  0  0  0  0
 60 63  1  0  0  0  0
 61191  1  0  0  0  0
 61192  1  0  0  0  0
 61193  1  0  0  0  0
 62194  1  0  0  0  0
 62195  1  0  0  0  0
 62196  1  0  0  0  0
 63197  1  0  0  0  0
 63198  1  0  0  0  0
 63199  1  0  0  0  0
 64 65  1  0  0  0  0
 64200  1  0  0  0  0
 64201  1  0  0  0  0
 65 66  1  0  0  0  0
 65202  1  0  0  0  0
 65203  1  0  0  0  0
 66204  1  0  0  0  0
 66205  1  0  0  0  0
 66206  1  0  0  0  0
 67 68  1  0  0  0  0
 67207  1  0  0  0  0
 67208  1  0  0  0  0
 68 69  2  0  0  0  0
 68 70  1  0  0  0  0
 70 71  1  0  0  0  0
 70131  1  0  0  0  0
 71 72  1  0  0  0  0
 71209  1  0  0  0  0
 71210  1  0  0  0  0
 72 73  2  0  0  0  0
 72 74  1  0  0  0  0
 74 75  1  0  0  0  0
 74127  1  0  0  0  0
 75 76  1  0  0  0  0
 75211  1  0  0  0  0
 75212  1  0  0  0  0
 76 77  1  0  0  0  0
 76 80  2  0  0  0  0
 77 78  2  0  0  0  0
 78 79  1  0  0  0  0
 79 80  1  0  0  0  0
 79 81  1  0  0  0  0
 80213  1  0  0  0  0
 81 82  1  0  0  0  0
 81214  1  0  0  0  0
 81215  1  0  0  0  0
 82 83  1  0  0  0  0
 82216  1  0  0  0  0
 82217  1  0  0  0  0
 83 84  1  0  0  0  0
 83218  1  0  0  0  0
 83219  1  0  0  0  0
 84 85  1  0  0  0  0
 84220  1  0  0  0  0
 84221  1  0  0  0  0
 85 86  2  0  0  0  0
 85 87  1  0  0  0  0
 87 88  1  0  0  0  0
 87222  1  0  0  0  0
 87223  1  0  0  0  0
 88 89  1  0  0  0  0
 88224  1  0  0  0  0
 88225  1  0  0  0  0
 89 90  1  0  0  0  0
 89226  1  0  0  0  0
 89227  1  0  0  0  0
 90 91  1  0  0  0  0
 91 92  1  0  0  0  0
 91 96  2  0  0  0  0
 92 93  2  0  0  0  0
 92123  1  0  0  0  0
 93 94  1  0  0  0  0
 93228  1  0  0  0  0
 94 95  2  0  0  0  0
 94101  1  0  0  0  0
 95 96  1  0  0  0  0
 95229  1  0  0  0  0
 96 97  1  0  0  0  0
 97 98  1  0  0  0  0
 97 99  1  0  0  0  0
 97100  1  0  0  0  0
 98230  1  0  0  0  0
 98231  1  0  0  0  0
 98232  1  0  0  0  0
 99233  1  0  0  0  0
 99234  1  0  0  0  0
 99235  1  0  0  0  0
100236  1  0  0  0  0
100237  1  0  0  0  0
100238  1  0  0  0  0
101102  2  0  0  0  0
101105  1  0  0  0  0
102103  1  0  0  0  0
103104  1  0  0  0  0
103109  2  0  0  0  0
104105  1  0  0  0  0
104106  2  0  0  0  0
105239  1  0  0  0  0
106107  1  0  0  0  0
106240  1  0  0  0  0
107108  2  0  0  0  0
107241  1  0  0  0  0
108109  1  0  0  0  0
108110  1  0  0  0  0
109242  1  0  0  0  0
110111  1  0  0  0  0
110115  2  0  0  0  0
111112  2  0  0  0  0
111243  1  0  0  0  0
112113  1  0  0  0  0
112244  1  0  0  0  0
113114  2  0  0  0  0
113116  1  0  0  0  0
114115  1  0  0  0  0
114245  1  0  0  0  0
115246  1  0  0  0  0
116117  1  0  0  0  0
116121  1  0  0  0  0
117118  1  0  0  0  0
117247  1  0  0  0  0
117248  1  0  0  0  0
118119  1  0  0  0  0
118249  1  0  0  0  0
118250  1  0  0  0  0
119120  1  0  0  0  0
119122  1  0  0  0  0
120121  1  0  0  0  0
120251  1  0  0  0  0
120252  1  0  0  0  0
121253  1  0  0  0  0
121254  1  0  0  0  0
122255  1  0  0  0  0
122256  1  0  0  0  0
122257  1  0  0  0  0
123124  1  0  0  0  0
123125  1  0  0  0  0
123126  1  0  0  0  0
124258  1  0  0  0  0
124259  1  0  0  0  0
124260  1  0  0  0  0
125261  1  0  0  0  0
125262  1  0  0  0  0
125263  1  0  0  0  0
126264  1  0  0  0  0
126265  1  0  0  0  0
126266  1  0  0  0  0
127128  1  0  0  0  0
127267  1  0  0  0  0
127268  1  0  0  0  0
128129  2  0  0  0  0
128130  1  0  0  0  0
130269  1  0  0  0  0
130270  1  0  0  0  0
131132  1  0  0  0  0
131271  1  0  0  0  0
131272  1  0  0  0  0
132133  1  0  0  0  0
132273  1  0  0  0  0
132274  1  0  0  0  0
133275  1  0  0  0  0
133276  1  0  0  0  0
133277  1  0  0  0  0
M  END
$$$$
Target_lig_1024
 OpenBabel04172506223D

231248  0  0  1  0  0  0  0  0999 V2000
    4.0326    6.6552    2.7051 O   0  0  0  0  0  0  0  0  0  0  0  0
    2.9484    5.7932    3.0648 C   0  0  3  0  0  0  0  0  0  0  0  0
    2.0750    5.5464    1.7753 C   0  0  0  0  0  0  0  0  0  0  0  0
    2.8013    5.0592    0.5915 O   0  0  0  0  0  0  0  0  0  0  0  0
    3.5238    3.5556    1.0499 P   0  0  3  0  0  0  0  0  0  0  0  0
    2.2272    2.7997    0.7096 O   0  0  0  0  0  0  0  0  0  0  0  0
    4.5208    3.5533   -0.2652 O   0  0  0  0  0  0  0  0  0  0  0  0
    4.9748    2.4213   -1.0192 C   0  0  3  0  0  0  0  0  0  0  0  0
    3.8669    1.5763   -1.6671 C   0  0  3  0  0  0  0  0  0  0  0  0
    3.8694    1.7575   -3.0768 O   0  0  0  0  0  0  0  0  0  0  0  0
    4.1137    0.1043   -1.3192 C   0  0  3  0  0  0  0  0  0  0  0  0
    5.5584   -0.0146   -0.9716 O   0  0  0  0  0  0  0  0  0  0  0  0
    6.0782    1.3766   -0.5760 C   0  0  3  0  0  0  0  0  0  0  0  0
    6.8691    1.4676    0.6954 N   0  0  0  0  0  0  0  0  0  0  0  0
    7.1809    0.4877    1.6202 C   0  0  0  0  0  0  0  0  0  0  0  0
    8.0975    0.8692    2.5135 N   0  0  0  0  0  0  0  0  0  0  0  0
    8.5080    2.1352    2.1364 C   0  0  0  0  0  0  0  0  0  0  0  0
    7.7610    2.5051    1.0017 C   0  0  0  0  0  0  0  0  0  0  0  0
    7.9429    3.6145    0.2656 N   0  0  0  0  0  0  0  0  0  0  0  0
    8.9419    4.3666    0.7422 C   0  0  0  0  0  0  0  0  0  0  0  0
    9.7051    4.1619    1.8317 N   0  0  0  0  0  0  0  0  0  0  0  0
    9.5547    3.0396    2.5880 C   0  0  0  0  0  0  0  0  0  0  0  0
   10.4790    2.9216    3.6465 N   0  0  0  0  0  0  0  0  0  0  0  0
    3.1843   -1.1383   -2.0721 C   0  0  0  0  0  0  0  0  0  0  0  0
    2.6042   -1.3310   -3.4762 O   0  0  0  0  0  0  0  0  0  0  0  0
    2.1482    0.2111   -4.1140 P   0  0  3  0  0  0  0  0  0  0  0  0
    2.7112   -0.1779   -5.4887 O   0  0  0  0  0  0  0  0  0  0  0  0
    0.5231   -0.1107   -4.1241 O   0  0  0  0  0  0  0  0  0  0  0  0
   -0.3443    0.4003   -5.1967 C   0  0  3  0  0  0  0  0  0  0  0  0
   -0.5871    1.9550   -5.4384 C   0  0  3  0  0  0  0  0  0  0  0  0
    0.3283    2.6329   -6.3459 O   0  0  0  0  0  0  0  0  0  0  0  0
   -2.0280    2.0073   -5.9011 C   0  0  3  0  0  0  0  0  0  0  0  0
   -2.6207    0.6963   -5.7949 O   0  0  0  0  0  0  0  0  0  0  0  0
   -1.7640   -0.0970   -4.9675 C   0  0  3  0  0  0  0  0  0  0  0  0
   -2.3012   -0.0520   -3.6343 N   0  0  0  0  0  0  0  0  0  0  0  0
   -3.0407   -1.0876   -3.1100 C   0  0  0  0  0  0  0  0  0  0  0  0
   -3.4988   -0.8036   -1.9176 N   0  0  0  0  0  0  0  0  0  0  0  0
   -3.1644    0.5055   -1.6893 C   0  0  0  0  0  0  0  0  0  0  0  0
   -2.3965    0.9972   -2.7385 C   0  0  0  0  0  0  0  0  0  0  0  0
   -1.9240    2.2527   -2.8740 N   0  0  0  0  0  0  0  0  0  0  0  0
   -2.4272    3.0535   -1.9091 C   0  0  0  0  0  0  0  0  0  0  0  0
   -3.1303    2.6891   -0.8196 N   0  0  0  0  0  0  0  0  0  0  0  0
   -3.4686    1.3833   -0.6311 C   0  0  0  0  0  0  0  0  0  0  0  0
   -4.1316    0.9982    0.5503 N   0  0  0  0  0  0  0  0  0  0  0  0
   -2.2006    2.4266   -7.3218 C   0  0  0  0  0  0  0  0  0  0  0  0
   -3.5907    2.4899   -7.5651 O   0  0  0  0  0  0  0  0  0  0  0  0
   -4.3340    3.8322   -7.0656 P   0  0  3  0  0  0  0  0  0  0  0  0
   -3.4149    4.9860   -6.8588 O   0  0  0  0  0  0  0  0  0  0  0  0
   -5.5328    3.9964   -8.1166 O   0  0  0  0  0  0  0  0  0  0  0  0
   -5.2187    4.0096   -9.4933 C   0  0  3  0  0  0  0  0  0  0  0  0
   -4.0142    4.8954   -9.8000 C   0  0  3  0  0  0  0  0  0  0  0  0
   -2.8583    4.0317   -9.7423 O   0  0  0  0  0  0  0  0  0  0  0  0
   -4.3774    5.6358  -11.0645 C   0  0  3  0  0  0  0  0  0  0  0  0
   -5.5835    5.0154  -11.5923 O   0  0  0  0  0  0  0  0  0  0  0  0
   -6.3227    4.4418  -10.4575 C   0  0  3  0  0  0  0  0  0  0  0  0
   -7.3426    5.3185   -9.8945 N   0  0  0  0  0  0  0  0  0  0  0  0
   -8.6857    5.0319   -9.7954 C   0  0  0  0  0  0  0  0  0  0  0  0
   -9.3636    5.9943   -9.2004 N   0  0  0  0  0  0  0  0  0  0  0  0
   -8.3868    6.8762   -8.7451 C   0  0  0  0  0  0  0  0  0  0  0  0
   -7.1306    6.4153   -9.1093 C   0  0  0  0  0  0  0  0  0  0  0  0
   -5.9388    6.9065   -8.7438 N   0  0  0  0  0  0  0  0  0  0  0  0
   -6.0551    8.0228   -8.0320 C   0  0  0  0  0  0  0  0  0  0  0  0
   -7.1916    8.6367   -7.6682 N   0  0  0  0  0  0  0  0  0  0  0  0
   -8.3779    8.0614   -7.9819 C   0  0  0  0  0  0  0  0  0  0  0  0
   -9.4705    8.7554   -7.4791 N   0  0  0  0  0  0  0  0  0  0  0  0
   -3.2622    6.1815  -11.9611 C   0  0  0  0  0  0  0  0  0  0  0  0
   -2.3500    5.3595  -12.6446 O   0  0  0  0  0  0  0  0  0  0  0  0
   -1.3040    4.1772  -11.9369 P   0  0  3  0  0  0  0  0  0  0  0  0
   -1.4916    3.1877  -13.0791 O   0  0  0  0  0  0  0  0  0  0  0  0
    0.0068    5.0816  -12.1273 O   0  0  0  0  0  0  0  0  0  0  0  0
    0.3197    5.7641  -13.3170 C   0  0  3  0  0  0  0  0  0  0  0  0
    0.5830    4.8643  -14.5331 C   0  0  3  0  0  0  0  0  0  0  0  0
   -0.3432    5.1270  -15.6113 O   0  0  0  0  0  0  0  0  0  0  0  0
    2.0122    5.2121  -14.9020 C   0  0  3  0  0  0  0  0  0  0  0  0
    2.3261    6.4611  -14.2799 O   0  0  0  0  0  0  0  0  0  0  0  0
    1.6356    6.5037  -13.0357 C   0  0  3  0  0  0  0  0  0  0  0  0
    2.4577    5.9701  -11.9458 N   0  0  0  0  0  0  0  0  0  0  0  0
    2.9385    4.6848  -11.8019 C   0  0  0  0  0  0  0  0  0  0  0  0
    3.5493    4.5031  -10.6534 N   0  0  0  0  0  0  0  0  0  0  0  0
    3.0728    5.5159   -9.8934 C   0  0  0  0  0  0  0  0  0  0  0  0
    2.3715    6.4433  -10.6471 C   0  0  0  0  0  0  0  0  0  0  0  0
    1.5160    7.3675  -10.1632 N   0  0  0  0  0  0  0  0  0  0  0  0
    1.2631    7.1005   -8.8546 C   0  0  0  0  0  0  0  0  0  0  0  0
    1.8529    6.2175   -8.0306 N   0  0  0  0  0  0  0  0  0  0  0  0
    2.8823    5.4942   -8.5145 C   0  0  0  0  0  0  0  0  0  0  0  0
    3.4009    4.4632   -7.7744 N   0  0  0  0  0  0  0  0  0  0  0  0
    2.2299    5.3564  -16.3710 C   0  0  0  0  0  0  0  0  0  0  0  0
    3.5912    5.6745  -16.5386 O   0  0  0  0  0  0  0  0  0  0  0  0
    3.8925    5.7405  -18.2408 P   0  0  0  0  0  0  0  0  0  0  0  0
    3.3068    7.1348  -18.3729 O   0  0  0  0  0  0  0  0  0  0  0  0
    5.4970    5.8365  -17.9948 O   0  0  0  0  0  0  0  0  0  0  0  0
    4.1937    5.8066  -19.9431 O   0  0  0  0  0  0  0  0  0  0  0  0
   -0.2579    2.9949  -11.2292 O   0  0  0  0  0  0  0  0  0  0  0  0
   -5.0919    3.4042   -5.7222 O   0  0  0  0  0  0  0  0  0  0  0  0
    1.6922    1.7533   -4.7518 O   0  0  0  0  0  0  0  0  0  0  0  0
    4.2463    2.0520    1.5083 O   0  0  0  0  0  0  0  0  0  0  0  0
    3.5313    4.5398    3.8252 C   0  0  0  0  0  0  0  0  0  0  0  0
    4.0477    4.8700    5.1278 O   0  0  0  0  0  0  0  0  0  0  0  0
    4.3555    3.7123    5.9197 C   0  0  0  0  0  0  0  0  0  0  0  0
    5.0147    4.1192    7.2421 C   0  0  0  0  0  0  0  0  0  0  0  0
    5.4432    2.8898    8.0438 C   0  0  0  0  0  0  0  0  0  0  0  0
    6.0118    3.2373    9.3287 N   0  0  0  0  0  0  0  0  0  0  0  0
    5.2291    3.1717   10.4770 C   0  0  0  0  0  0  0  0  0  0  0  0
    4.0184    2.9783   10.4626 O   0  0  0  0  0  0  0  0  0  0  0  0
    6.0189    3.3069   11.7701 C   0  0  0  0  0  0  0  0  0  0  0  0
    5.7656    2.1332   12.7254 C   0  0  0  0  0  0  0  0  0  0  0  0
    6.2599    0.7998   12.1592 C   0  0  0  0  0  0  0  0  0  0  0  0
    6.0544   -0.2325   13.1440 O   0  0  0  0  0  0  0  0  0  0  0  0
    6.4183   -1.5076   12.7829 C   0  0  0  0  0  0  0  0  0  0  0  0
    6.9670   -1.8870   11.5585 C   0  0  0  0  0  0  0  0  0  0  0  0
    7.3172   -3.2195   11.3259 C   0  0  0  0  0  0  0  0  0  0  0  0
    7.1161   -4.1961   12.3072 C   0  0  0  0  0  0  0  0  0  0  0  0
    6.5612   -3.8383   13.5387 C   0  0  0  0  0  0  0  0  0  0  0  0
    6.2174   -2.4944   13.7651 C   0  0  0  0  0  0  0  0  0  0  0  0
    6.3545   -4.8929   14.5460 C   0  0  0  0  0  0  0  0  0  0  0  0
    6.7144   -6.1620   14.4263 N   0  0  0  0  0  0  0  0  0  0  0  0
    6.3374   -6.7876   15.5948 C   0  0  0  0  0  0  0  0  0  0  0  0
    5.7174   -5.8828   16.4443 C   0  0  0  0  0  0  0  0  0  0  0  0
    5.7338   -4.6943   15.7608 N   0  0  0  0  0  0  0  0  0  0  0  0
    5.2337   -6.2262   17.7023 C   0  0  0  0  0  0  0  0  0  0  0  0
    5.4047   -7.5596   18.1022 C   0  0  0  0  0  0  0  0  0  0  0  0
    6.0250   -8.5259   17.2833 C   0  0  0  0  0  0  0  0  0  0  0  0
    6.4925   -8.1305   16.0099 C   0  0  0  0  0  0  0  0  0  0  0  0
    6.1572   -9.9074   17.7941 C   0  0  0  0  0  0  0  0  0  0  0  0
    5.6561  -10.3486   18.9401 N   0  0  0  0  0  0  0  0  0  0  0  0
    6.0258  -11.6688   19.0491 C   0  0  0  0  0  0  0  0  0  0  0  0
    6.7597  -12.0661   17.9413 C   0  0  0  0  0  0  0  0  0  0  0  0
    6.8307  -10.9397   17.1571 N   0  0  0  0  0  0  0  0  0  0  0  0
    7.2663  -13.3657   17.7859 C   0  0  0  0  0  0  0  0  0  0  0  0
    7.0261  -14.3099   18.8079 C   0  0  0  0  0  0  0  0  0  0  0  0
    6.2583  -13.9016   19.9199 C   0  0  0  0  0  0  0  0  0  0  0  0
    5.7571  -12.6023   20.0590 C   0  0  0  0  0  0  0  0  0  0  0  0
    7.4549  -15.6305   18.7264 N   0  0  0  0  0  0  0  0  0  0  0  0
    7.8015  -16.2531   17.4458 C   0  0  0  0  0  0  0  0  0  0  0  0
    7.4258  -17.7357   17.5173 C   0  0  0  0  0  0  0  0  0  0  0  0
    8.0784  -18.3742   18.6698 N   0  0  0  0  0  0  0  0  0  0  0  0
    7.7090  -17.7171   19.9315 C   0  0  0  0  0  0  0  0  0  0  0  0
    8.1026  -16.2424   19.8950 C   0  0  0  0  0  0  0  0  0  0  0  0
    7.7327  -19.7900   18.7243 C   0  0  0  0  0  0  0  0  0  0  0  0
    3.6531    7.4723    2.3181 H   0  0  0  0  0  0  0  0  0  0  0  0
    2.3289    6.3331    3.7905 H   0  0  0  0  0  0  0  0  0  0  0  0
    1.5851    6.4752    1.4727 H   0  0  0  0  0  0  0  0  0  0  0  0
    1.2872    4.8179    2.0084 H   0  0  0  0  0  0  0  0  0  0  0  0
    5.4772    2.9558   -1.8387 H   0  0  0  0  0  0  0  0  0  0  0  0
    2.8728    1.8548   -1.3191 H   0  0  0  0  0  0  0  0  0  0  0  0
    4.7488    1.9492   -3.4574 H   0  0  0  0  0  0  0  0  0  0  0  0
    3.7296   -0.0059   -0.2960 H   0  0  0  0  0  0  0  0  0  0  0  0
    6.8969    1.5053   -1.3035 H   0  0  0  0  0  0  0  0  0  0  0  0
    6.7554   -0.5113    1.5931 H   0  0  0  0  0  0  0  0  0  0  0  0
    9.2033    5.2420    0.1542 H   0  0  0  0  0  0  0  0  0  0  0  0
   11.1537    3.6924    3.7606 H   0  0  0  0  0  0  0  0  0  0  0  0
   10.1998    2.4897    4.5200 H   0  0  0  0  0  0  0  0  0  0  0  0
    2.2554   -1.0794   -1.4902 H   0  0  0  0  0  0  0  0  0  0  0  0
    3.6693   -2.0871   -1.8264 H   0  0  0  0  0  0  0  0  0  0  0  0
    0.0566    0.0144   -6.1289 H   0  0  0  0  0  0  0  0  0  0  0  0
   -0.4675    2.5196   -4.5081 H   0  0  0  0  0  0  0  0  0  0  0  0
    0.0507    2.6920   -7.2800 H   0  0  0  0  0  0  0  0  0  0  0  0
   -2.5863    2.6910   -5.2549 H   0  0  0  0  0  0  0  0  0  0  0  0
   -1.8328   -1.1304   -5.3059 H   0  0  0  0  0  0  0  0  0  0  0  0
   -3.2203   -2.0151   -3.6468 H   0  0  0  0  0  0  0  0  0  0  0  0
   -2.2543    4.1204   -2.0118 H   0  0  0  0  0  0  0  0  0  0  0  0
   -4.6623    1.7813    0.9185 H   0  0  0  0  0  0  0  0  0  0  0  0
   -4.6469    0.1395    0.4048 H   0  0  0  0  0  0  0  0  0  0  0  0
   -1.7530    1.7129   -8.0222 H   0  0  0  0  0  0  0  0  0  0  0  0
   -1.7305    3.4039   -7.5060 H   0  0  0  0  0  0  0  0  0  0  0  0
   -4.9838    2.9713   -9.7635 H   0  0  0  0  0  0  0  0  0  0  0  0
   -3.8234    5.6572   -9.0433 H   0  0  0  0  0  0  0  0  0  0  0  0
   -3.0532    3.6216   -8.8831 H   0  0  0  0  0  0  0  0  0  0  0  0
   -4.8053    6.5903  -10.7364 H   0  0  0  0  0  0  0  0  0  0  0  0
   -6.8638    3.5629  -10.8326 H   0  0  0  0  0  0  0  0  0  0  0  0
   -9.1077    4.1004  -10.1454 H   0  0  0  0  0  0  0  0  0  0  0  0
   -5.1294    8.4915   -7.7260 H   0  0  0  0  0  0  0  0  0  0  0  0
   -9.1056    9.6637   -7.2109 H   0  0  0  0  0  0  0  0  0  0  0  0
  -10.2596    8.7725   -8.1110 H   0  0  0  0  0  0  0  0  0  0  0  0
   -2.6798    6.9158  -11.3977 H   0  0  0  0  0  0  0  0  0  0  0  0
   -3.7715    6.7318  -12.7635 H   0  0  0  0  0  0  0  0  0  0  0  0
   -0.4513    6.5058  -13.5460 H   0  0  0  0  0  0  0  0  0  0  0  0
    0.5211    3.7958  -14.3116 H   0  0  0  0  0  0  0  0  0  0  0  0
   -0.1583    6.0302  -15.9238 H   0  0  0  0  0  0  0  0  0  0  0  0
    2.7183    4.4749  -14.5053 H   0  0  0  0  0  0  0  0  0  0  0  0
    1.4515    7.5564  -12.7978 H   0  0  0  0  0  0  0  0  0  0  0  0
    2.6817    3.8531  -12.4433 H   0  0  0  0  0  0  0  0  0  0  0  0
    0.3634    7.5510   -8.4503 H   0  0  0  0  0  0  0  0  0  0  0  0
    4.3479    4.6380   -7.4771 H   0  0  0  0  0  0  0  0  0  0  0  0
    2.8174    4.1552   -7.0068 H   0  0  0  0  0  0  0  0  0  0  0  0
    1.6419    6.1798  -16.7862 H   0  0  0  0  0  0  0  0  0  0  0  0
    1.9943    4.4273  -16.9009 H   0  0  0  0  0  0  0  0  0  0  0  0
    5.9249    4.9577  -17.9471 H   0  0  0  0  0  0  0  0  0  0  0  0
    4.2044    6.7660  -20.1108 H   0  0  0  0  0  0  0  0  0  0  0  0
   -0.7451    2.1602  -11.3327 H   0  0  0  0  0  0  0  0  0  0  0  0
   -4.6518    3.7076   -4.9044 H   0  0  0  0  0  0  0  0  0  0  0  0
    1.4100    1.9256   -5.6925 H   0  0  0  0  0  0  0  0  0  0  0  0
    3.9260    1.8403    2.4194 H   0  0  0  0  0  0  0  0  0  0  0  0
    4.3896    4.1336    3.2844 H   0  0  0  0  0  0  0  0  0  0  0  0
    2.7543    3.7750    3.9348 H   0  0  0  0  0  0  0  0  0  0  0  0
    5.0394    3.0641    5.3582 H   0  0  0  0  0  0  0  0  0  0  0  0
    3.4310    3.1609    6.1216 H   0  0  0  0  0  0  0  0  0  0  0  0
    4.3197    4.7338    7.8275 H   0  0  0  0  0  0  0  0  0  0  0  0
    5.8850    4.7597    7.0507 H   0  0  0  0  0  0  0  0  0  0  0  0
    6.2116    2.3275    7.5023 H   0  0  0  0  0  0  0  0  0  0  0  0
    4.5900    2.2178    8.1930 H   0  0  0  0  0  0  0  0  0  0  0  0
    6.9967    3.4632    9.3984 H   0  0  0  0  0  0  0  0  0  0  0  0
    5.7066    4.2432   12.2480 H   0  0  0  0  0  0  0  0  0  0  0  0
    7.0919    3.3904   11.5672 H   0  0  0  0  0  0  0  0  0  0  0  0
    4.6984    2.0551   12.9684 H   0  0  0  0  0  0  0  0  0  0  0  0
    6.2723    2.3267   13.6773 H   0  0  0  0  0  0  0  0  0  0  0  0
    7.3273    0.8749   11.9218 H   0  0  0  0  0  0  0  0  0  0  0  0
    5.6857    0.5567   11.2561 H   0  0  0  0  0  0  0  0  0  0  0  0
    7.1324   -1.1715   10.7593 H   0  0  0  0  0  0  0  0  0  0  0  0
    7.7489   -3.5051   10.3716 H   0  0  0  0  0  0  0  0  0  0  0  0
    7.4020   -5.2328   12.0932 H   0  0  0  0  0  0  0  0  0  0  0  0
    5.7830   -2.1715   14.7055 H   0  0  0  0  0  0  0  0  0  0  0  0
    5.3571   -3.8189   16.0997 H   0  0  0  0  0  0  0  0  0  0  0  0
    4.7641   -5.4976   18.3571 H   0  0  0  0  0  0  0  0  0  0  0  0
    5.0410   -7.8290   19.0963 H   0  0  0  0  0  0  0  0  0  0  0  0
    6.9775   -8.8228   15.3292 H   0  0  0  0  0  0  0  0  0  0  0  0
    7.3142  -10.8923   16.2714 H   0  0  0  0  0  0  0  0  0  0  0  0
    7.8490  -13.6309   16.9084 H   0  0  0  0  0  0  0  0  0  0  0  0
    6.0153  -14.6330   20.6892 H   0  0  0  0  0  0  0  0  0  0  0  0
    5.1717  -12.3376   20.9362 H   0  0  0  0  0  0  0  0  0  0  0  0
    8.8731  -16.1337   17.2420 H   0  0  0  0  0  0  0  0  0  0  0  0
    7.2445  -15.8118   16.6123 H   0  0  0  0  0  0  0  0  0  0  0  0
    7.7382  -18.2245   16.5869 H   0  0  0  0  0  0  0  0  0  0  0  0
    6.3340  -17.8335   17.5924 H   0  0  0  0  0  0  0  0  0  0  0  0
    8.2262  -18.1968   20.7716 H   0  0  0  0  0  0  0  0  0  0  0  0
    6.6294  -17.8081   20.1144 H   0  0  0  0  0  0  0  0  0  0  0  0
    9.1921  -16.1367   19.8127 H   0  0  0  0  0  0  0  0  0  0  0  0
    7.8156  -15.7836   20.8467 H   0  0  0  0  0  0  0  0  0  0  0  0
    8.0547  -20.3024   17.8108 H   0  0  0  0  0  0  0  0  0  0  0  0
    6.6559  -19.9538   18.8488 H   0  0  0  0  0  0  0  0  0  0  0  0
    8.2513  -20.2830   19.5548 H   0  0  0  0  0  0  0  0  0  0  0  0
  1  2  1  0  0  0  0
  1140  1  0  0  0  0
  2  3  1  0  0  0  0
  2 97  1  0  0  0  0
  2141  1  0  0  0  0
  3  4  1  0  0  0  0
  3142  1  0  0  0  0
  3143  1  0  0  0  0
  4  5  1  0  0  0  0
  5  6  2  0  0  0  0
  5  7  1  0  0  0  0
  5 96  1  0  0  0  0
  7  8  1  0  0  0  0
  8  9  1  0  0  0  0
  8 13  1  0  0  0  0
  8144  1  0  0  0  0
  9 10  1  0  0  0  0
  9 11  1  0  0  0  0
  9145  1  0  0  0  0
 10146  1  0  0  0  0
 11 12  1  0  0  0  0
 11 24  1  0  0  0  0
 11147  1  0  0  0  0
 12 13  1  0  0  0  0
 13 14  1  0  0  0  0
 13148  1  0  0  0  0
 14 15  1  0  0  0  0
 14 18  1  0  0  0  0
 15 16  2  0  0  0  0
 15149  1  0  0  0  0
 16 17  1  0  0  0  0
 17 18  1  0  0  0  0
 17 22  2  0  0  0  0
 18 19  2  0  0  0  0
 19 20  1  0  0  0  0
 20 21  2  0  0  0  0
 20150  1  0  0  0  0
 21 22  1  0  0  0  0
 22 23  1  0  0  0  0
 23151  1  0  0  0  0
 23152  1  0  0  0  0
 24 25  1  0  0  0  0
 24153  1  0  0  0  0
 24154  1  0  0  0  0
 25 26  1  0  0  0  0
 26 27  2  0  0  0  0
 26 28  1  0  0  0  0
 26 95  1  0  0  0  0
 28 29  1  0  0  0  0
 29 30  1  0  0  0  0
 29 34  1  0  0  0  0
 29155  1  0  0  0  0
 30 31  1  0  0  0  0
 30 32  1  0  0  0  0
 30156  1  0  0  0  0
 31157  1  0  0  0  0
 32 33  1  0  0  0  0
 32 45  1  0  0  0  0
 32158  1  0  0  0  0
 33 34  1  0  0  0  0
 34 35  1  0  0  0  0
 34159  1  0  0  0  0
 35 36  1  0  0  0  0
 35 39  1  0  0  0  0
 36 37  2  0  0  0  0
 36160  1  0  0  0  0
 37 38  1  0  0  0  0
 38 39  1  0  0  0  0
 38 43  2  0  0  0  0
 39 40  2  0  0  0  0
 40 41  1  0  0  0  0
 41 42  2  0  0  0  0
 41161  1  0  0  0  0
 42 43  1  0  0  0  0
 43 44  1  0  0  0  0
 44162  1  0  0  0  0
 44163  1  0  0  0  0
 45 46  1  0  0  0  0
 45164  1  0  0  0  0
 45165  1  0  0  0  0
 46 47  1  0  0  0  0
 47 48  2  0  0  0  0
 47 49  1  0  0  0  0
 47 94  1  0  0  0  0
 49 50  1  0  0  0  0
 50 51  1  0  0  0  0
 50 55  1  0  0  0  0
 50166  1  0  0  0  0
 51 52  1  0  0  0  0
 51 53  1  0  0  0  0
 51167  1  0  0  0  0
 52168  1  0  0  0  0
 53 54  1  0  0  0  0
 53 66  1  0  0  0  0
 53169  1  0  0  0  0
 54 55  1  0  0  0  0
 55 56  1  0  0  0  0
 55170  1  0  0  0  0
 56 57  1  0  0  0  0
 56 60  1  0  0  0  0
 57 58  2  0  0  0  0
 57171  1  0  0  0  0
 58 59  1  0  0  0  0
 59 60  1  0  0  0  0
 59 64  2  0  0  0  0
 60 61  2  0  0  0  0
 61 62  1  0  0  0  0
 62 63  2  0  0  0  0
 62172  1  0  0  0  0
 63 64  1  0  0  0  0
 64 65  1  0  0  0  0
 65173  1  0  0  0  0
 65174  1  0  0  0  0
 66 67  1  0  0  0  0
 66175  1  0  0  0  0
 66176  1  0  0  0  0
 67 68  1  0  0  0  0
 68 69  2  0  0  0  0
 68 70  1  0  0  0  0
 68 93  1  0  0  0  0
 70 71  1  0  0  0  0
 71 72  1  0  0  0  0
 71 76  1  0  0  0  0
 71177  1  0  0  0  0
 72 73  1  0  0  0  0
 72 74  1  0  0  0  0
 72178  1  0  0  0  0
 73179  1  0  0  0  0
 74 75  1  0  0  0  0
 74 87  1  0  0  0  0
 74180  1  0  0  0  0
 75 76  1  0  0  0  0
 76 77  1  0  0  0  0
 76181  1  0  0  0  0
 77 78  1  0  0  0  0
 77 81  1  0  0  0  0
 78 79  2  0  0  0  0
 78182  1  0  0  0  0
 79 80  1  0  0  0  0
 80 81  1  0  0  0  0
 80 85  2  0  0  0  0
 81 82  2  0  0  0  0
 82 83  1  0  0  0  0
 83 84  2  0  0  0  0
 83183  1  0  0  0  0
 84 85  1  0  0  0  0
 85 86  1  0  0  0  0
 86184  1  0  0  0  0
 86185  1  0  0  0  0
 87 88  1  0  0  0  0
 87186  1  0  0  0  0
 87187  1  0  0  0  0
 88 89  1  0  0  0  0
 89 90  2  0  0  0  0
 89 91  1  0  0  0  0
 89 92  1  0  0  0  0
 91188  1  0  0  0  0
 92189  1  0  0  0  0
 93190  1  0  0  0  0
 94191  1  0  0  0  0
 95192  1  0  0  0  0
 96193  1  0  0  0  0
 97 98  1  0  0  0  0
 97194  1  0  0  0  0
 97195  1  0  0  0  0
 98 99  1  0  0  0  0
 99100  1  0  0  0  0
 99196  1  0  0  0  0
 99197  1  0  0  0  0
100101  1  0  0  0  0
100198  1  0  0  0  0
100199  1  0  0  0  0
101102  1  0  0  0  0
101200  1  0  0  0  0
101201  1  0  0  0  0
102103  1  0  0  0  0
102202  1  0  0  0  0
103104  2  0  0  0  0
103105  1  0  0  0  0
105106  1  0  0  0  0
105203  1  0  0  0  0
105204  1  0  0  0  0
106107  1  0  0  0  0
106205  1  0  0  0  0
106206  1  0  0  0  0
107108  1  0  0  0  0
107207  1  0  0  0  0
107208  1  0  0  0  0
108109  1  0  0  0  0
109110  1  0  0  0  0
109114  2  0  0  0  0
110111  2  0  0  0  0
110209  1  0  0  0  0
111112  1  0  0  0  0
111210  1  0  0  0  0
112113  2  0  0  0  0
112211  1  0  0  0  0
113114  1  0  0  0  0
113115  1  0  0  0  0
114212  1  0  0  0  0
115116  2  0  0  0  0
115119  1  0  0  0  0
116117  1  0  0  0  0
117118  1  0  0  0  0
117123  2  0  0  0  0
118119  1  0  0  0  0
118120  2  0  0  0  0
119213  1  0  0  0  0
120121  1  0  0  0  0
120214  1  0  0  0  0
121122  2  0  0  0  0
121215  1  0  0  0  0
122123  1  0  0  0  0
122124  1  0  0  0  0
123216  1  0  0  0  0
124125  2  0  0  0  0
124128  1  0  0  0  0
125126  1  0  0  0  0
126127  1  0  0  0  0
126132  2  0  0  0  0
127128  1  0  0  0  0
127129  2  0  0  0  0
128217  1  0  0  0  0
129130  1  0  0  0  0
129218  1  0  0  0  0
130131  2  0  0  0  0
130133  1  0  0  0  0
131132  1  0  0  0  0
131219  1  0  0  0  0
132220  1  0  0  0  0
133134  1  0  0  0  0
133138  1  0  0  0  0
134135  1  0  0  0  0
134221  1  0  0  0  0
134222  1  0  0  0  0
135136  1  0  0  0  0
135223  1  0  0  0  0
135224  1  0  0  0  0
136137  1  0  0  0  0
136139  1  0  0  0  0
137138  1  0  0  0  0
137225  1  0  0  0  0
137226  1  0  0  0  0
138227  1  0  0  0  0
138228  1  0  0  0  0
139229  1  0  0  0  0
139230  1  0  0  0  0
139231  1  0  0  0  0
M  END
$$$$
Target_lig_1025
 OpenBabel04172506223D

344364  0  0  1  0  0  0  0  0999 V2000
    9.3488   -1.1917   -0.6657 C   0  0  0  0  0  0  0  0  0  0  0  0
    9.0730    0.3037   -0.5967 C   0  0  0  0  0  0  0  0  0  0  0  0
    7.6032    0.8457   -0.7891 C   0  0  0  0  0  0  0  0  0  0  0  0
    6.5761    0.5897    0.2977 N   0  0  0  0  0  0  0  0  0  0  0  0
    5.3834   -0.2037    0.1821 C   0  0  0  0  0  0  0  0  0  0  0  0
    5.1834   -0.7859   -0.8898 O   0  0  0  0  0  0  0  0  0  0  0  0
    4.4188   -0.3310    1.2802 N   0  0  0  0  0  0  0  0  0  0  0  0
    3.1536   -1.1777    1.1660 C   0  0  0  0  0  0  0  0  0  0  0  0
    1.7452   -0.7176    1.8040 C   0  0  0  0  0  0  0  0  0  0  0  0
    1.1366   -1.3835    2.8749 N   0  0  0  0  0  0  0  0  0  0  0  0
   -0.0839   -0.8589    3.1388 N   0  0  0  0  0  0  0  0  0  0  0  0
   -0.3470    0.0778    2.2156 N   0  0  0  0  0  0  0  0  0  0  0  0
    0.7797    0.1803    1.3914 C   0  0  0  0  0  0  0  0  0  0  0  0
   -1.4412    1.0690    2.2120 C   0  0  0  0  0  0  0  0  0  0  0  0
   -2.6427    1.2904    3.2784 C   0  0  0  0  0  0  0  0  0  0  0  0
   -2.6009    1.6661    4.8947 C   0  0  0  0  0  0  0  0  0  0  0  0
   -2.3648    3.1134    5.7941 C   0  0  0  0  0  0  0  0  0  0  0  0
   -3.1231    4.5120    5.3711 C   0  0  0  0  0  0  0  0  0  0  0  0
   -4.2147    4.3317    4.7942 O   0  0  0  0  0  0  0  0  0  0  0  0
   -2.6428    6.1551    5.5134 C   0  0  0  0  0  0  0  0  0  0  0  0
   -1.2983    7.0430    5.4004 C   0  0  0  0  0  0  0  0  0  0  0  0
   -0.4578    7.7052    3.9901 C   0  0  0  0  0  0  0  0  0  0  0  0
   -0.0790    7.2244    2.3203 O   0  0  0  0  0  0  0  0  0  0  0  0
   -0.5180    5.6646    1.0145 C   0  0  0  0  0  0  0  0  0  0  0  0
   -1.5833    5.8506   -0.1012 C   0  0  0  0  0  0  0  0  0  0  0  0
   -1.2638    5.2278   -1.3606 C   0  0  0  0  0  0  0  0  0  0  0  0
   -0.1394    4.3754   -1.6074 C   0  0  0  0  0  0  0  0  0  0  0  0
    0.5592    3.8657   -0.5432 C   0  0  0  0  0  0  0  0  0  0  0  0
    0.3910    4.2875    0.7997 C   0  0  0  0  0  0  0  0  0  0  0  0
    1.3213    3.1525    1.6556 C   0  0  0  0  0  0  0  0  0  0  0  0
    2.4950    2.3697    0.8065 C   0  0  0  0  0  0  0  0  0  0  0  0
    2.3894    4.0208    1.9333 C   0  0  0  0  0  0  0  0  0  0  0  0
    1.1552    2.5081    3.1003 C   0  0  0  0  0  0  0  0  0  0  0  0
    0.1910    3.8316   -2.9419 C   0  0  0  0  0  0  0  0  0  0  0  0
    1.3034    3.3430   -3.5394 N   0  0  0  0  0  0  0  0  0  0  0  0
    0.8500    2.7626   -4.7522 C   0  0  0  0  0  0  0  0  0  0  0  0
   -0.4420    3.2643   -4.9663 C   0  0  0  0  0  0  0  0  0  0  0  0
   -0.8741    3.4603   -3.6880 N   0  0  0  0  0  0  0  0  0  0  0  0
   -1.0972    2.7063   -6.0132 C   0  0  0  0  0  0  0  0  0  0  0  0
   -1.0403    1.3718   -5.6353 C   0  0  0  0  0  0  0  0  0  0  0  0
    0.0800    0.7299   -5.9486 C   0  0  0  0  0  0  0  0  0  0  0  0
    1.1740    1.5807   -5.6030 C   0  0  0  0  0  0  0  0  0  0  0  0
   -0.1132   -0.5594   -6.3565 N   0  0  0  0  0  0  0  0  0  0  0  0
    0.9010   -1.3796   -6.9526 C   0  0  0  0  0  0  0  0  0  0  0  0
    0.3728   -1.8277   -8.3354 C   0  0  0  0  0  0  0  0  0  0  0  0
   -0.8012   -2.7288   -8.2330 N   0  0  0  0  0  0  0  0  0  0  0  0
   -1.8993   -2.0150   -7.5363 C   0  0  0  0  0  0  0  0  0  0  0  0
   -1.4008   -1.3673   -6.1938 C   0  0  0  0  0  0  0  0  0  0  0  0
   -1.1838   -3.2185   -9.5557 C   0  0  0  0  0  0  0  0  0  0  0  0
   -3.0027    6.7554    0.0348 C   0  0  0  0  0  0  0  0  0  0  0  0
   -2.8045    8.2807   -0.3578 C   0  0  0  0  0  0  0  0  0  0  0  0
   -4.0499    6.1630   -0.9057 C   0  0  0  0  0  0  0  0  0  0  0  0
   -3.8115    6.7381    1.4521 C   0  0  0  0  0  0  0  0  0  0  0  0
    4.5128    0.2495    2.5869 C   0  0  0  0  0  0  0  0  0  0  0  0
    5.4654   -0.2174    3.7116 C   0  0  0  0  0  0  0  0  0  0  0  0
    6.4525   -1.2215    3.4858 O   0  0  0  0  0  0  0  0  0  0  0  0
    7.8347   -1.0004    3.1371 C   0  0  0  0  0  0  0  0  0  0  0  0
    8.7046    0.0500    3.8653 C   0  0  0  0  0  0  0  0  0  0  0  0
    8.3889    0.2070    5.2527 O   0  0  0  0  0  0  0  0  0  0  0  0
    9.1190    1.1506    6.0489 C   0  0  0  0  0  0  0  0  0  0  0  0
    8.4174    2.5272    6.2538 C   0  0  0  0  0  0  0  0  0  0  0  0
    6.8306    2.7205    6.3515 O   0  0  0  0  0  0  0  0  0  0  0  0
    6.3986    2.2727    7.9657 P   0  0  3  0  0  0  0  0  0  0  0  0
    7.7740    2.4842    8.5604 O   0  0  0  0  0  0  0  0  0  0  0  0
    5.3865    3.3772    8.3988 O   0  0  0  0  0  0  0  0  0  0  0  0
    5.3686    4.1156    7.3192 C   0  0  3  0  0  0  0  0  0  0  0  0
    5.0181    3.2590    6.1262 C   0  0  3  0  0  0  0  0  0  0  0  0
    3.6622    2.7899    6.2749 O   0  0  0  0  0  0  0  0  0  0  0  0
    6.3043    4.3152    5.0896 C   0  0  3  0  0  0  0  0  0  0  0  0
    7.2670    4.9918    5.8917 O   0  0  0  0  0  0  0  0  0  0  0  0
    6.6551    5.1025    7.1789 C   0  0  3  0  0  0  0  0  0  0  0  0
    7.6307    5.1935    8.2379 N   0  0  0  0  0  0  0  0  0  0  0  0
    8.9895    5.3181    8.2169 C   0  0  0  0  0  0  0  0  0  0  0  0
    9.4852    5.1256    9.4268 N   0  0  0  0  0  0  0  0  0  0  0  0
    8.3842    5.1928   10.2633 C   0  0  0  0  0  0  0  0  0  0  0  0
    7.2487    5.4449    9.5187 C   0  0  0  0  0  0  0  0  0  0  0  0
    6.0197    5.7971    9.9245 N   0  0  0  0  0  0  0  0  0  0  0  0
    5.9713    5.7903   11.2630 C   0  0  0  0  0  0  0  0  0  0  0  0
    6.9490    5.4362   12.1322 N   0  0  0  0  0  0  0  0  0  0  0  0
    8.1655    5.0751   11.6414 C   0  0  0  0  0  0  0  0  0  0  0  0
    9.1218    4.6286   12.5596 N   0  0  0  0  0  0  0  0  0  0  0  0
    6.3063    4.9264    3.3826 C   0  0  0  0  0  0  0  0  0  0  0  0
    5.2120    4.2061    2.5963 O   0  0  0  0  0  0  0  0  0  0  0  0
    4.1140    5.4711    2.1636 P   0  0  3  0  0  0  0  0  0  0  0  0
    4.8444    6.6687    2.7534 O   0  0  0  0  0  0  0  0  0  0  0  0
    4.5301    5.4373    0.5836 O   0  0  0  0  0  0  0  0  0  0  0  0
    3.9432    6.4274   -0.2461 C   0  0  3  0  0  0  0  0  0  0  0  0
    4.7666    7.7087   -0.0324 C   0  0  3  0  0  0  0  0  0  0  0  0
    6.0867    7.6489   -0.5530 O   0  0  0  0  0  0  0  0  0  0  0  0
    3.8662    8.7403   -0.6391 C   0  0  3  0  0  0  0  0  0  0  0  0
    2.4699    8.3695   -0.4381 O   0  0  0  0  0  0  0  0  0  0  0  0
    2.3261    6.9225   -0.1475 C   0  0  3  0  0  0  0  0  0  0  0  0
    1.1900    6.8622    1.0371 N   0  0  0  0  0  0  0  0  0  0  0  0
   -0.2817    7.7538    0.6028 C   0  0  0  0  0  0  0  0  0  0  0  0
   -1.5879    7.1801    1.6135 N   0  0  0  0  0  0  0  0  0  0  0  0
   -0.8810    5.7737    2.8313 C   0  0  0  0  0  0  0  0  0  0  0  0
    0.9272    5.8562    2.6147 C   0  0  0  0  0  0  0  0  0  0  0  0
    1.6066    5.7689    3.8636 N   0  0  0  0  0  0  0  0  0  0  0  0
    0.8879    5.0526    4.7746 C   0  0  0  0  0  0  0  0  0  0  0  0
   -0.3846    4.5680    4.7052 N   0  0  0  0  0  0  0  0  0  0  0  0
   -1.1747    4.8098    3.6364 C   0  0  0  0  0  0  0  0  0  0  0  0
   -1.8193    3.7606    3.0549 N   0  0  0  0  0  0  0  0  0  0  0  0
    4.1241    8.8732   -2.1251 C   0  0  0  0  0  0  0  0  0  0  0  0
    3.0174    9.5994   -2.5923 O   0  0  0  0  0  0  0  0  0  0  0  0
    3.1655   10.9330   -3.4408 P   0  0  3  0  0  0  0  0  0  0  0  0
    4.3068   10.9888   -4.3838 O   0  0  0  0  0  0  0  0  0  0  0  0
    1.7043   11.0523   -4.0729 O   0  0  0  0  0  0  0  0  0  0  0  0
    1.0912   10.0732   -4.8812 C   0  0  3  0  0  0  0  0  0  0  0  0
    1.0662    8.5750   -4.5138 C   0  0  3  0  0  0  0  0  0  0  0  0
    0.2460    8.2263   -3.3902 O   0  0  0  0  0  0  0  0  0  0  0  0
    0.7106    7.8926   -5.8423 C   0  0  3  0  0  0  0  0  0  0  0  0
    1.0096    8.8121   -6.9218 O   0  0  0  0  0  0  0  0  0  0  0  0
    1.2994   10.1330   -6.4089 C   0  0  3  0  0  0  0  0  0  0  0  0
    2.3653   10.7614   -7.1739 N   0  0  0  0  0  0  0  0  0  0  0  0
    3.7067   10.4978   -7.2641 C   0  0  0  0  0  0  0  0  0  0  0  0
    4.3129   11.2506   -8.1722 N   0  0  0  0  0  0  0  0  0  0  0  0
    3.3177   12.0176   -8.7578 C   0  0  0  0  0  0  0  0  0  0  0  0
    2.1017   11.7073   -8.1553 C   0  0  0  0  0  0  0  0  0  0  0  0
    0.8977   12.2525   -8.4265 N   0  0  0  0  0  0  0  0  0  0  0  0
    0.9806   13.1053   -9.4668 C   0  0  0  0  0  0  0  0  0  0  0  0
    2.0714   13.5227  -10.1261 N   0  0  0  0  0  0  0  0  0  0  0  0
    3.2711   13.0751   -9.7058 C   0  0  0  0  0  0  0  0  0  0  0  0
    4.2927   14.0026   -9.9801 N   0  0  0  0  0  0  0  0  0  0  0  0
   -0.6456    7.1786   -6.1021 C   0  0  0  0  0  0  0  0  0  0  0  0
   -1.9453    7.7910   -5.8540 O   0  0  0  0  0  0  0  0  0  0  0  0
   -2.3417    9.1580   -6.8373 P   0  0  3  0  0  0  0  0  0  0  0  0
   -2.3134    8.3273   -8.1262 O   0  0  0  0  0  0  0  0  0  0  0  0
   -3.8876    9.1226   -6.2077 O   0  0  0  0  0  0  0  0  0  0  0  0
   -4.2269    8.0086   -5.3520 C   0  0  3  0  0  0  0  0  0  0  0  0
   -4.2469    6.6949   -6.1641 C   0  0  3  0  0  0  0  0  0  0  0  0
   -3.0828    5.9212   -6.3937 O   0  0  0  0  0  0  0  0  0  0  0  0
   -5.2115    5.8119   -5.4609 C   0  0  3  0  0  0  0  0  0  0  0  0
   -5.7594    6.5086   -4.2927 O   0  0  0  0  0  0  0  0  0  0  0  0
   -5.5517    7.9958   -4.5644 C   0  0  3  0  0  0  0  0  0  0  0  0
   -6.7476    8.6280   -5.1356 N   0  0  0  0  0  0  0  0  0  0  0  0
   -7.6450    9.5065   -4.5481 C   0  0  0  0  0  0  0  0  0  0  0  0
   -8.5609    9.9601   -5.4025 N   0  0  0  0  0  0  0  0  0  0  0  0
   -8.1780    9.4399   -6.6078 C   0  0  0  0  0  0  0  0  0  0  0  0
   -7.0610    8.6439   -6.4603 C   0  0  0  0  0  0  0  0  0  0  0  0
   -6.3609    8.0705   -7.4332 N   0  0  0  0  0  0  0  0  0  0  0  0
   -6.7767    8.4377   -8.6416 C   0  0  0  0  0  0  0  0  0  0  0  0
   -7.8905    9.1290   -8.9333 N   0  0  0  0  0  0  0  0  0  0  0  0
   -8.6508    9.5904   -7.9157 C   0  0  0  0  0  0  0  0  0  0  0  0
   -9.8300   10.2484   -8.2491 N   0  0  0  0  0  0  0  0  0  0  0  0
   -4.7878    4.2892   -5.4914 C   0  0  0  0  0  0  0  0  0  0  0  0
   -3.4543    3.5792   -5.1995 O   0  0  0  0  0  0  0  0  0  0  0  0
   -3.6983    1.9240   -5.6396 P   0  0  0  0  0  0  0  0  0  0  0  0
   -3.1386    1.4879   -4.2668 O   0  0  0  0  0  0  0  0  0  0  0  0
   -5.1785    1.8406   -4.9439 O   0  0  0  0  0  0  0  0  0  0  0  0
   -3.9424    0.2688   -6.0797 O   0  0  0  0  0  0  0  0  0  0  0  0
   -2.7381   10.5251   -7.8207 O   0  0  0  0  0  0  0  0  0  0  0  0
    3.1549   12.1168   -2.3580 O   0  0  0  0  0  0  0  0  0  0  0  0
    3.0160    6.7360    1.7309 O   0  0  0  0  0  0  0  0  0  0  0  0
    5.9666    1.8250    9.5800 O   0  0  0  0  0  0  0  0  0  0  0  0
    6.8906    1.3729    1.4325 C   0  0  0  0  0  0  0  0  0  0  0  0
    5.9664    2.4898    1.6815 C   0  0  0  0  0  0  0  0  0  0  0  0
    5.4098    3.0577    0.7434 O   0  0  0  0  0  0  0  0  0  0  0  0
    5.8061    2.7206    3.3709 N   0  0  0  0  0  0  0  0  0  0  0  0
    4.4632    3.7528    4.2135 C   0  0  0  0  0  0  0  0  0  0  0  0
    3.2644    3.4705    4.2548 O   0  0  0  0  0  0  0  0  0  0  0  0
    4.5634    5.6152    4.9740 C   0  0  0  0  0  0  0  0  0  0  0  0
    4.0029    6.6279    6.1716 C   0  0  0  0  0  0  0  0  0  0  0  0
    3.1776    5.8880    7.1657 C   0  0  0  0  0  0  0  0  0  0  0  0
    2.0392    6.4954    7.5874 O   0  0  0  0  0  0  0  0  0  0  0  0
    1.3658    5.5600    8.3372 C   0  0  0  0  0  0  0  0  0  0  0  0
    1.2253    4.1584    8.1414 C   0  0  0  0  0  0  0  0  0  0  0  0
    0.1701    3.4644    8.7330 C   0  0  0  0  0  0  0  0  0  0  0  0
   -0.6759    4.1775    9.5614 C   0  0  0  0  0  0  0  0  0  0  0  0
   -0.4218    5.5686    9.7716 C   0  0  0  0  0  0  0  0  0  0  0  0
    0.6348    6.2341    9.2483 C   0  0  0  0  0  0  0  0  0  0  0  0
   -1.7577    3.6033   10.3571 C   0  0  0  0  0  0  0  0  0  0  0  0
   -2.2713    2.3918   10.5772 N   0  0  0  0  0  0  0  0  0  0  0  0
   -3.0760    2.5713   11.7273 C   0  0  0  0  0  0  0  0  0  0  0  0
   -3.3442    3.9353   11.8758 C   0  0  0  0  0  0  0  0  0  0  0  0
   -2.2407    4.4450   11.3091 N   0  0  0  0  0  0  0  0  0  0  0  0
   -4.0200    4.4259   12.9659 C   0  0  0  0  0  0  0  0  0  0  0  0
   -3.2836    3.8711   13.9880 C   0  0  0  0  0  0  0  0  0  0  0  0
   -3.3972    2.4894   14.1248 C   0  0  0  0  0  0  0  0  0  0  0  0
   -3.4059    1.7695   12.8740 C   0  0  0  0  0  0  0  0  0  0  0  0
   -3.3279    2.0008   15.4233 N   0  0  0  0  0  0  0  0  0  0  0  0
   -3.8891    0.7231   15.8497 C   0  0  0  0  0  0  0  0  0  0  0  0
   -5.1742    0.9489   16.6832 C   0  0  0  0  0  0  0  0  0  0  0  0
   -4.8924    1.7324   17.9089 N   0  0  0  0  0  0  0  0  0  0  0  0
   -4.3510    3.0455   17.5062 C   0  0  0  0  0  0  0  0  0  0  0  0
   -3.1181    2.9349   16.5723 C   0  0  0  0  0  0  0  0  0  0  0  0
   -6.0904    1.8647   18.7285 C   0  0  0  0  0  0  0  0  0  0  0  0
    7.6100    2.8770    3.4483 C   0  0  0  0  0  0  0  0  0  0  0  0
    8.8550    3.5226    2.6129 C   0  0  0  0  0  0  0  0  0  0  0  0
   10.2102    3.3171    3.3440 C   0  0  0  0  0  0  0  0  0  0  0  0
   10.4328   -1.3530   -0.7787 H   0  0  0  0  0  0  0  0  0  0  0  0
    8.8666   -1.6655   -1.5226 H   0  0  0  0  0  0  0  0  0  0  0  0
    9.0604   -1.7068    0.2533 H   0  0  0  0  0  0  0  0  0  0  0  0
    9.6876    0.7566   -1.3917 H   0  0  0  0  0  0  0  0  0  0  0  0
    9.5204    0.6780    0.3349 H   0  0  0  0  0  0  0  0  0  0  0  0
    7.2163    0.6439   -1.7874 H   0  0  0  0  0  0  0  0  0  0  0  0
    7.7722    1.9442   -0.7828 H   0  0  0  0  0  0  0  0  0  0  0  0
    3.4228   -2.0828    1.7202 H   0  0  0  0  0  0  0  0  0  0  0  0
    2.9742   -1.4180    0.1191 H   0  0  0  0  0  0  0  0  0  0  0  0
    0.7265    0.9525    0.6564 H   0  0  0  0  0  0  0  0  0  0  0  0
   -1.9119    0.9335    1.2277 H   0  0  0  0  0  0  0  0  0  0  0  0
   -0.9442    2.0140    1.9889 H   0  0  0  0  0  0  0  0  0  0  0  0
   -3.2297    0.3726    3.1875 H   0  0  0  0  0  0  0  0  0  0  0  0
   -3.3268    2.0196    2.8076 H   0  0  0  0  0  0  0  0  0  0  0  0
   -1.9068    0.9345    5.3265 H   0  0  0  0  0  0  0  0  0  0  0  0
   -3.6081    1.3660    5.2234 H   0  0  0  0  0  0  0  0  0  0  0  0
   -1.2912    3.1831    5.9323 H   0  0  0  0  0  0  0  0  0  0  0  0
   -2.7012    2.8911    6.8232 H   0  0  0  0  0  0  0  0  0  0  0  0
   -3.0937    6.4588    6.4711 H   0  0  0  0  0  0  0  0  0  0  0  0
   -3.2573    6.6339    4.7385 H   0  0  0  0  0  0  0  0  0  0  0  0
   -0.5678    6.5222    6.0482 H   0  0  0  0  0  0  0  0  0  0  0  0
   -1.4228    7.9516    6.0147 H   0  0  0  0  0  0  0  0  0  0  0  0
    0.2174    6.9902    4.3436 H   0  0  0  0  0  0  0  0  0  0  0  0
    0.3922    8.3881    4.2032 H   0  0  0  0  0  0  0  0  0  0  0  0
   -1.8874    5.4610   -2.2215 H   0  0  0  0  0  0  0  0  0  0  0  0
    1.3135    3.1436   -0.8379 H   0  0  0  0  0  0  0  0  0  0  0  0
    3.1265    3.0632    0.2077 H   0  0  0  0  0  0  0  0  0  0  0  0
    2.3028    1.5900    0.1050 H   0  0  0  0  0  0  0  0  0  0  0  0
    3.1762    1.9412    1.5342 H   0  0  0  0  0  0  0  0  0  0  0  0
    2.5369    4.6391    1.0555 H   0  0  0  0  0  0  0  0  0  0  0  0
    3.2650    3.4867    2.2508 H   0  0  0  0  0  0  0  0  0  0  0  0
    2.3423    4.5277    2.8249 H   0  0  0  0  0  0  0  0  0  0  0  0
    0.5092    1.6926    3.3018 H   0  0  0  0  0  0  0  0  0  0  0  0
    0.8235    3.1500    3.8718 H   0  0  0  0  0  0  0  0  0  0  0  0
    2.0820    2.0991    3.5075 H   0  0  0  0  0  0  0  0  0  0  0  0
   -1.7538    3.1271   -3.3108 H   0  0  0  0  0  0  0  0  0  0  0  0
   -0.8128    2.9673   -7.0295 H   0  0  0  0  0  0  0  0  0  0  0  0
   -1.2307    1.0760   -4.5733 H   0  0  0  0  0  0  0  0  0  0  0  0
    2.1868    1.3884   -5.9035 H   0  0  0  0  0  0  0  0  0  0  0  0
    1.0466   -2.2493   -6.2999 H   0  0  0  0  0  0  0  0  0  0  0  0
    1.8436   -0.8442   -7.0377 H   0  0  0  0  0  0  0  0  0  0  0  0
    1.1876   -2.3450   -8.8431 H   0  0  0  0  0  0  0  0  0  0  0  0
    0.0931   -0.9432   -8.9259 H   0  0  0  0  0  0  0  0  0  0  0  0
   -2.7100   -2.7308   -7.3191 H   0  0  0  0  0  0  0  0  0  0  0  0
   -2.3436   -1.2474   -8.1868 H   0  0  0  0  0  0  0  0  0  0  0  0
   -1.1996   -2.1905   -5.4962 H   0  0  0  0  0  0  0  0  0  0  0  0
   -2.2072   -0.8307   -5.7080 H   0  0  0  0  0  0  0  0  0  0  0  0
   -0.3247   -3.7134  -10.0258 H   0  0  0  0  0  0  0  0  0  0  0  0
   -1.5166   -2.4178  -10.2255 H   0  0  0  0  0  0  0  0  0  0  0  0
   -1.9745   -3.9744   -9.4929 H   0  0  0  0  0  0  0  0  0  0  0  0
   -2.3296    8.3901   -1.3383 H   0  0  0  0  0  0  0  0  0  0  0  0
   -2.1922    8.8663    0.3446 H   0  0  0  0  0  0  0  0  0  0  0  0
   -3.7374    8.8424   -0.3281 H   0  0  0  0  0  0  0  0  0  0  0  0
   -3.7802    6.2949   -1.9520 H   0  0  0  0  0  0  0  0  0  0  0  0
   -5.0136    6.6607   -0.7533 H   0  0  0  0  0  0  0  0  0  0  0  0
   -4.1788    5.0994   -0.6840 H   0  0  0  0  0  0  0  0  0  0  0  0
   -3.3500    7.1871    2.3443 H   0  0  0  0  0  0  0  0  0  0  0  0
   -4.0723    5.7192    1.7494 H   0  0  0  0  0  0  0  0  0  0  0  0
   -4.7114    7.3607    1.3741 H   0  0  0  0  0  0  0  0  0  0  0  0
    3.5365    0.4876    3.0185 H   0  0  0  0  0  0  0  0  0  0  0  0
    4.7008    1.2363    2.3111 H   0  0  0  0  0  0  0  0  0  0  0  0
    4.7665   -0.6347    4.4395 H   0  0  0  0  0  0  0  0  0  0  0  0
    5.8892    0.6312    4.2536 H   0  0  0  0  0  0  0  0  0  0  0  0
    7.8888   -0.8038    2.0599 H   0  0  0  0  0  0  0  0  0  0  0  0
    8.3449   -1.9529    3.2374 H   0  0  0  0  0  0  0  0  0  0  0  0
    8.4716    0.9170    3.2954 H   0  0  0  0  0  0  0  0  0  0  0  0
    9.7773    0.0303    3.6270 H   0  0  0  0  0  0  0  0  0  0  0  0
   10.1289    1.3375    5.6411 H   0  0  0  0  0  0  0  0  0  0  0  0
    9.3004    0.7034    7.0322 H   0  0  0  0  0  0  0  0  0  0  0  0
    8.7589    3.1228    5.4352 H   0  0  0  0  0  0  0  0  0  0  0  0
    8.9289    3.1298    7.0063 H   0  0  0  0  0  0  0  0  0  0  0  0
    4.4074    4.4371    7.4434 H   0  0  0  0  0  0  0  0  0  0  0  0
    5.2704    2.1708    5.8786 H   0  0  0  0  0  0  0  0  0  0  0  0
    3.6150    1.9141    6.7240 H   0  0  0  0  0  0  0  0  0  0  0  0
    6.6472    3.3897    4.8736 H   0  0  0  0  0  0  0  0  0  0  0  0
    6.3391    6.1244    7.1764 H   0  0  0  0  0  0  0  0  0  0  0  0
    9.5625    5.5122    7.3171 H   0  0  0  0  0  0  0  0  0  0  0  0
    5.0270    6.1161   11.6839 H   0  0  0  0  0  0  0  0  0  0  0  0
    9.8629    5.3143   12.6564 H   0  0  0  0  0  0  0  0  0  0  0  0
    8.6412    4.4392   13.4336 H   0  0  0  0  0  0  0  0  0  0  0  0
    7.0910    4.7587    2.6741 H   0  0  0  0  0  0  0  0  0  0  0  0
    6.5466    5.9948    3.3735 H   0  0  0  0  0  0  0  0  0  0  0  0
    4.1172    6.0697   -1.2679 H   0  0  0  0  0  0  0  0  0  0  0  0
    4.8994    7.9782    1.0148 H   0  0  0  0  0  0  0  0  0  0  0  0
    6.1865    6.7987   -1.0138 H   0  0  0  0  0  0  0  0  0  0  0  0
    4.0238    9.7159   -0.1661 H   0  0  0  0  0  0  0  0  0  0  0  0
    1.8042    6.4542   -0.9881 H   0  0  0  0  0  0  0  0  0  0  0  0
   -0.2584    8.0371   -0.4569 H   0  0  0  0  0  0  0  0  0  0  0  0
    1.3233    4.7915    5.7178 H   0  0  0  0  0  0  0  0  0  0  0  0
   -2.7200    3.6017    3.4938 H   0  0  0  0  0  0  0  0  0  0  0  0
   -1.2015    3.0260    3.3975 H   0  0  0  0  0  0  0  0  0  0  0  0
    4.1008    7.8937   -2.6177 H   0  0  0  0  0  0  0  0  0  0  0  0
    5.0976    9.3287   -2.3453 H   0  0  0  0  0  0  0  0  0  0  0  0
    0.0342   10.3390   -4.7439 H   0  0  0  0  0  0  0  0  0  0  0  0
    2.0652    8.2338   -4.2302 H   0  0  0  0  0  0  0  0  0  0  0  0
   -0.7029    8.2842   -3.5927 H   0  0  0  0  0  0  0  0  0  0  0  0
    1.4521    7.0886   -5.9673 H   0  0  0  0  0  0  0  0  0  0  0  0
    0.4233   10.7099   -6.7169 H   0  0  0  0  0  0  0  0  0  0  0  0
    4.2244    9.7760   -6.6430 H   0  0  0  0  0  0  0  0  0  0  0  0
    0.0570   13.5864   -9.7718 H   0  0  0  0  0  0  0  0  0  0  0  0
    4.4216   14.0823  -10.9871 H   0  0  0  0  0  0  0  0  0  0  0  0
    3.8074   14.8891   -9.7908 H   0  0  0  0  0  0  0  0  0  0  0  0
   -0.6291    6.8745   -7.1564 H   0  0  0  0  0  0  0  0  0  0  0  0
   -0.6501    6.2524   -5.5189 H   0  0  0  0  0  0  0  0  0  0  0  0
   -3.4941    8.0080   -4.5325 H   0  0  0  0  0  0  0  0  0  0  0  0
   -4.5675    6.8910   -7.1810 H   0  0  0  0  0  0  0  0  0  0  0  0
   -2.6199    6.3648   -7.1222 H   0  0  0  0  0  0  0  0  0  0  0  0
   -6.1113    5.8009   -6.0886 H   0  0  0  0  0  0  0  0  0  0  0  0
   -5.4196    8.4706   -3.5805 H   0  0  0  0  0  0  0  0  0  0  0  0
   -7.5999    9.8077   -3.5066 H   0  0  0  0  0  0  0  0  0  0  0  0
   -6.1091    8.1565   -9.4481 H   0  0  0  0  0  0  0  0  0  0  0  0
  -10.1447   10.8760   -7.5210 H   0  0  0  0  0  0  0  0  0  0  0  0
   -9.7404   10.5928   -9.1973 H   0  0  0  0  0  0  0  0  0  0  0  0
   -4.9349    4.0209   -6.5495 H   0  0  0  0  0  0  0  0  0  0  0  0
   -5.5714    3.8267   -4.8955 H   0  0  0  0  0  0  0  0  0  0  0  0
   -4.8386    1.7051   -4.0144 H   0  0  0  0  0  0  0  0  0  0  0  0
   -4.4084    0.2086   -6.9298 H   0  0  0  0  0  0  0  0  0  0  0  0
   -2.4949   10.1923   -8.7114 H   0  0  0  0  0  0  0  0  0  0  0  0
    3.1581   12.9801   -2.8076 H   0  0  0  0  0  0  0  0  0  0  0  0
    3.2774    7.4985    2.2949 H   0  0  0  0  0  0  0  0  0  0  0  0
    6.1593    0.8827    9.7282 H   0  0  0  0  0  0  0  0  0  0  0  0
    7.9012    1.7414    1.3371 H   0  0  0  0  0  0  0  0  0  0  0  0
    6.8170    0.7784    2.2871 H   0  0  0  0  0  0  0  0  0  0  0  0
    5.4192    6.2613    4.7071 H   0  0  0  0  0  0  0  0  0  0  0  0
    4.9746    5.2802    5.8535 H   0  0  0  0  0  0  0  0  0  0  0  0
    3.6714    7.6072    5.8527 H   0  0  0  0  0  0  0  0  0  0  0  0
    4.8422    6.9604    6.8314 H   0  0  0  0  0  0  0  0  0  0  0  0
    3.7214    5.6969    8.1132 H   0  0  0  0  0  0  0  0  0  0  0  0
    2.9103    5.0046    6.6022 H   0  0  0  0  0  0  0  0  0  0  0  0
    1.8644    3.5767    7.4847 H   0  0  0  0  0  0  0  0  0  0  0  0
    0.0071    2.4092    8.5252 H   0  0  0  0  0  0  0  0  0  0  0  0
   -1.0549    6.2248   10.3530 H   0  0  0  0  0  0  0  0  0  0  0  0
    0.8402    7.2773    9.4461 H   0  0  0  0  0  0  0  0  0  0  0  0
   -1.7406    5.2219   11.7030 H   0  0  0  0  0  0  0  0  0  0  0  0
   -5.0829    4.1478   12.9922 H   0  0  0  0  0  0  0  0  0  0  0  0
   -2.2523    4.2431   14.1551 H   0  0  0  0  0  0  0  0  0  0  0  0
   -3.3906    0.6909   12.7800 H   0  0  0  0  0  0  0  0  0  0  0  0
   -3.1406    0.2405   16.4920 H   0  0  0  0  0  0  0  0  0  0  0  0
   -4.0819    0.0419   15.0173 H   0  0  0  0  0  0  0  0  0  0  0  0
   -5.5775   -0.0286   16.9668 H   0  0  0  0  0  0  0  0  0  0  0  0
   -5.9286    1.4632   16.0720 H   0  0  0  0  0  0  0  0  0  0  0  0
   -4.0367    3.5963   18.4038 H   0  0  0  0  0  0  0  0  0  0  0  0
   -5.1270    3.6540   17.0207 H   0  0  0  0  0  0  0  0  0  0  0  0
   -2.2676    2.5492   17.1440 H   0  0  0  0  0  0  0  0  0  0  0  0
   -2.8280    3.9518   16.2830 H   0  0  0  0  0  0  0  0  0  0  0  0
   -6.4364    0.8746   19.0477 H   0  0  0  0  0  0  0  0  0  0  0  0
   -6.9139    2.3606   18.2029 H   0  0  0  0  0  0  0  0  0  0  0  0
   -5.8804    2.4260   19.6468 H   0  0  0  0  0  0  0  0  0  0  0  0
    7.7864    2.0965    4.1386 H   0  0  0  0  0  0  0  0  0  0  0  0
    7.8918    3.7175    4.0662 H   0  0  0  0  0  0  0  0  0  0  0  0
    8.8300    4.6299    2.6251 H   0  0  0  0  0  0  0  0  0  0  0  0
    8.9343    3.2663    1.5657 H   0  0  0  0  0  0  0  0  0  0  0  0
   10.2623    3.8784    4.2909 H   0  0  0  0  0  0  0  0  0  0  0  0
   11.0341    3.7063    2.7399 H   0  0  0  0  0  0  0  0  0  0  0  0
   10.4069    2.2703    3.5621 H   0  0  0  0  0  0  0  0  0  0  0  0
  1  2  1  0  0  0  0
  1190  1  0  0  0  0
  1191  1  0  0  0  0
  1192  1  0  0  0  0
  2  3  1  0  0  0  0
  2193  1  0  0  0  0
  2194  1  0  0  0  0
  3  4  1  0  0  0  0
  3195  1  0  0  0  0
  3196  1  0  0  0  0
  4  5  1  0  0  0  0
  4155  1  0  0  0  0
  5  6  2  0  0  0  0
  5  7  1  0  0  0  0
  7  8  1  0  0  0  0
  7 54  1  0  0  0  0
  8  9  1  0  0  0  0
  8197  1  0  0  0  0
  8198  1  0  0  0  0
  9 10  1  0  0  0  0
  9 13  2  0  0  0  0
 10 11  2  0  0  0  0
 11 12  1  0  0  0  0
 12 13  1  0  0  0  0
 12 14  1  0  0  0  0
 13199  1  0  0  0  0
 14 15  1  0  0  0  0
 14200  1  0  0  0  0
 14201  1  0  0  0  0
 15 16  1  0  0  0  0
 15202  1  0  0  0  0
 15203  1  0  0  0  0
 16 17  1  0  0  0  0
 16204  1  0  0  0  0
 16205  1  0  0  0  0
 17 18  1  0  0  0  0
 17206  1  0  0  0  0
 17207  1  0  0  0  0
 18 19  2  0  0  0  0
 18 20  1  0  0  0  0
 20 21  1  0  0  0  0
 20208  1  0  0  0  0
 20209  1  0  0  0  0
 21 22  1  0  0  0  0
 21210  1  0  0  0  0
 21211  1  0  0  0  0
 22 23  1  0  0  0  0
 22212  1  0  0  0  0
 22213  1  0  0  0  0
 23 24  1  0  0  0  0
 24 25  1  0  0  0  0
 24 29  2  0  0  0  0
 25 26  2  0  0  0  0
 25 50  1  0  0  0  0
 26 27  1  0  0  0  0
 26214  1  0  0  0  0
 27 28  2  0  0  0  0
 27 34  1  0  0  0  0
 28 29  1  0  0  0  0
 28215  1  0  0  0  0
 29 30  1  0  0  0  0
 30 31  1  0  0  0  0
 30 32  1  0  0  0  0
 30 33  1  0  0  0  0
 31216  1  0  0  0  0
 31217  1  0  0  0  0
 31218  1  0  0  0  0
 32219  1  0  0  0  0
 32220  1  0  0  0  0
 32221  1  0  0  0  0
 33222  1  0  0  0  0
 33223  1  0  0  0  0
 33224  1  0  0  0  0
 34 35  2  0  0  0  0
 34 38  1  0  0  0  0
 35 36  1  0  0  0  0
 36 37  1  0  0  0  0
 36 42  2  0  0  0  0
 37 38  1  0  0  0  0
 37 39  2  0  0  0  0
 38225  1  0  0  0  0
 39 40  1  0  0  0  0
 39226  1  0  0  0  0
 40 41  2  0  0  0  0
 40227  1  0  0  0  0
 41 42  1  0  0  0  0
 41 43  1  0  0  0  0
 42228  1  0  0  0  0
 43 44  1  0  0  0  0
 43 48  1  0  0  0  0
 44 45  1  0  0  0  0
 44229  1  0  0  0  0
 44230  1  0  0  0  0
 45 46  1  0  0  0  0
 45231  1  0  0  0  0
 45232  1  0  0  0  0
 46 47  1  0  0  0  0
 46 49  1  0  0  0  0
 47 48  1  0  0  0  0
 47233  1  0  0  0  0
 47234  1  0  0  0  0
 48235  1  0  0  0  0
 48236  1  0  0  0  0
 49237  1  0  0  0  0
 49238  1  0  0  0  0
 49239  1  0  0  0  0
 50 51  1  0  0  0  0
 50 52  1  0  0  0  0
 50 53  1  0  0  0  0
 51240  1  0  0  0  0
 51241  1  0  0  0  0
 51242  1  0  0  0  0
 52243  1  0  0  0  0
 52244  1  0  0  0  0
 52245  1  0  0  0  0
 53246  1  0  0  0  0
 53247  1  0  0  0  0
 53248  1  0  0  0  0
 54 55  1  0  0  0  0
 54249  1  0  0  0  0
 54250  1  0  0  0  0
 55 56  1  0  0  0  0
 55251  1  0  0  0  0
 55252  1  0  0  0  0
 56 57  1  0  0  0  0
 57 58  1  0  0  0  0
 57253  1  0  0  0  0
 57254  1  0  0  0  0
 58 59  1  0  0  0  0
 58255  1  0  0  0  0
 58256  1  0  0  0  0
 59 60  1  0  0  0  0
 60 61  1  0  0  0  0
 60257  1  0  0  0  0
 60258  1  0  0  0  0
 61 62  1  0  0  0  0
 61259  1  0  0  0  0
 61260  1  0  0  0  0
 62 63  1  0  0  0  0
 63 64  2  0  0  0  0
 63 65  1  0  0  0  0
 63154  1  0  0  0  0
 65 66  1  0  0  0  0
 66 67  1  0  0  0  0
 66 71  1  0  0  0  0
 66261  1  0  0  0  0
 67 68  1  0  0  0  0
 67 69  1  0  0  0  0
 67262  1  0  0  0  0
 68263  1  0  0  0  0
 69 70  1  0  0  0  0
 69 82  1  0  0  0  0
 69264  1  0  0  0  0
 70 71  1  0  0  0  0
 71 72  1  0  0  0  0
 71265  1  0  0  0  0
 72 73  1  0  0  0  0
 72 76  1  0  0  0  0
 73 74  2  0  0  0  0
 73266  1  0  0  0  0
 74 75  1  0  0  0  0
 75 76  1  0  0  0  0
 75 80  2  0  0  0  0
 76 77  2  0  0  0  0
 77 78  1  0  0  0  0
 78 79  2  0  0  0  0
 78267  1  0  0  0  0
 79 80  1  0  0  0  0
 80 81  1  0  0  0  0
 81268  1  0  0  0  0
 81269  1  0  0  0  0
 82 83  1  0  0  0  0
 82270  1  0  0  0  0
 82271  1  0  0  0  0
 83 84  1  0  0  0  0
 84 85  2  0  0  0  0
 84 86  1  0  0  0  0
 84153  1  0  0  0  0
 86 87  1  0  0  0  0
 87 88  1  0  0  0  0
 87 92  1  0  0  0  0
 87272  1  0  0  0  0
 88 89  1  0  0  0  0
 88 90  1  0  0  0  0
 88273  1  0  0  0  0
 89274  1  0  0  0  0
 90 91  1  0  0  0  0
 90103  1  0  0  0  0
 90275  1  0  0  0  0
 91 92  1  0  0  0  0
 92 93  1  0  0  0  0
 92276  1  0  0  0  0
 93 94  1  0  0  0  0
 93 97  1  0  0  0  0
 94 95  2  0  0  0  0
 94277  1  0  0  0  0
 95 96  1  0  0  0  0
 96 97  1  0  0  0  0
 96101  2  0  0  0  0
 97 98  2  0  0  0  0
 98 99  1  0  0  0  0
 99100  2  0  0  0  0
 99278  1  0  0  0  0
100101  1  0  0  0  0
101102  1  0  0  0  0
102279  1  0  0  0  0
102280  1  0  0  0  0
103104  1  0  0  0  0
103281  1  0  0  0  0
103282  1  0  0  0  0
104105  1  0  0  0  0
105106  2  0  0  0  0
105107  1  0  0  0  0
105152  1  0  0  0  0
107108  1  0  0  0  0
108109  1  0  0  0  0
108113  1  0  0  0  0
108283  1  0  0  0  0
109110  1  0  0  0  0
109111  1  0  0  0  0
109284  1  0  0  0  0
110285  1  0  0  0  0
111112  1  0  0  0  0
111124  1  0  0  0  0
111286  1  0  0  0  0
112113  1  0  0  0  0
113114  1  0  0  0  0
113287  1  0  0  0  0
114115  1  0  0  0  0
114118  1  0  0  0  0
115116  2  0  0  0  0
115288  1  0  0  0  0
116117  1  0  0  0  0
117118  1  0  0  0  0
117122  2  0  0  0  0
118119  2  0  0  0  0
119120  1  0  0  0  0
120121  2  0  0  0  0
120289  1  0  0  0  0
121122  1  0  0  0  0
122123  1  0  0  0  0
123290  1  0  0  0  0
123291  1  0  0  0  0
124125  1  0  0  0  0
124292  1  0  0  0  0
124293  1  0  0  0  0
125126  1  0  0  0  0
126127  2  0  0  0  0
126128  1  0  0  0  0
126151  1  0  0  0  0
128129  1  0  0  0  0
129130  1  0  0  0  0
129134  1  0  0  0  0
129294  1  0  0  0  0
130131  1  0  0  0  0
130132  1  0  0  0  0
130295  1  0  0  0  0
131296  1  0  0  0  0
132133  1  0  0  0  0
132145  1  0  0  0  0
132297  1  0  0  0  0
133134  1  0  0  0  0
134135  1  0  0  0  0
134298  1  0  0  0  0
135136  1  0  0  0  0
135139  1  0  0  0  0
136137  2  0  0  0  0
136299  1  0  0  0  0
137138  1  0  0  0  0
138139  1  0  0  0  0
138143  2  0  0  0  0
139140  2  0  0  0  0
140141  1  0  0  0  0
141142  2  0  0  0  0
141300  1  0  0  0  0
142143  1  0  0  0  0
143144  1  0  0  0  0
144301  1  0  0  0  0
144302  1  0  0  0  0
145146  1  0  0  0  0
145303  1  0  0  0  0
145304  1  0  0  0  0
146147  1  0  0  0  0
147148  2  0  0  0  0
147149  1  0  0  0  0
147150  1  0  0  0  0
149305  1  0  0  0  0
150306  1  0  0  0  0
151307  1  0  0  0  0
152308  1  0  0  0  0
153309  1  0  0  0  0
154310  1  0  0  0  0
155156  1  0  0  0  0
155311  1  0  0  0  0
155312  1  0  0  0  0
156157  2  0  0  0  0
156158  1  0  0  0  0
158159  1  0  0  0  0
158187  1  0  0  0  0
159160  2  0  0  0  0
159161  1  0  0  0  0
161162  1  0  0  0  0
161313  1  0  0  0  0
161314  1  0  0  0  0
162163  1  0  0  0  0
162315  1  0  0  0  0
162316  1  0  0  0  0
163164  1  0  0  0  0
163317  1  0  0  0  0
163318  1  0  0  0  0
164165  1  0  0  0  0
165166  1  0  0  0  0
165170  2  0  0  0  0
166167  2  0  0  0  0
166319  1  0  0  0  0
167168  1  0  0  0  0
167320  1  0  0  0  0
168169  2  0  0  0  0
168171  1  0  0  0  0
169170  1  0  0  0  0
169321  1  0  0  0  0
170322  1  0  0  0  0
171172  2  0  0  0  0
171175  1  0  0  0  0
172173  1  0  0  0  0
173174  1  0  0  0  0
173179  2  0  0  0  0
174175  1  0  0  0  0
174176  2  0  0  0  0
175323  1  0  0  0  0
176177  1  0  0  0  0
176324  1  0  0  0  0
177178  2  0  0  0  0
177325  1  0  0  0  0
178179  1  0  0  0  0
178180  1  0  0  0  0
179326  1  0  0  0  0
180181  1  0  0  0  0
180185  1  0  0  0  0
181182  1  0  0  0  0
181327  1  0  0  0  0
181328  1  0  0  0  0
182183  1  0  0  0  0
182329  1  0  0  0  0
182330  1  0  0  0  0
183184  1  0  0  0  0
183186  1  0  0  0  0
184185  1  0  0  0  0
184331  1  0  0  0  0
184332  1  0  0  0  0
185333  1  0  0  0  0
185334  1  0  0  0  0
186335  1  0  0  0  0
186336  1  0  0  0  0
186337  1  0  0  0  0
187188  1  0  0  0  0
187338  1  0  0  0  0
187339  1  0  0  0  0
188189  1  0  0  0  0
188340  1  0  0  0  0
188341  1  0  0  0  0
189342  1  0  0  0  0
189343  1  0  0  0  0
189344  1  0  0  0  0
M  END
$$$$
Target_lig_1026
 OpenBabel04172506223D

373387  0  0  1  0  0  0  0  0999 V2000
   -0.3106    1.2522   -2.4149 C   0  0  0  0  0  0  0  0  0  0  0  0
   -1.0576    1.5135   -1.1141 C   0  0  0  0  0  0  0  0  0  0  0  0
   -1.0047    0.4937    0.0519 C   0  0  0  0  0  0  0  0  0  0  0  0
    0.0117    0.3071    1.1375 N   0  0  0  0  0  0  0  0  0  0  0  0
    1.0076    1.2254    1.3851 C   0  0  0  0  0  0  0  0  0  0  0  0
    1.0841    2.1899    0.6147 O   0  0  0  0  0  0  0  0  0  0  0  0
    1.8099    1.1201    2.5619 N   0  0  0  0  0  0  0  0  0  0  0  0
    2.2577   -0.0673    3.3620 C   0  0  0  0  0  0  0  0  0  0  0  0
    2.2294   -0.0417    4.8911 C   0  0  0  0  0  0  0  0  0  0  0  0
    2.8218   -1.1107    5.5404 N   0  0  0  0  0  0  0  0  0  0  0  0
    2.5891   -1.0304    6.8467 N   0  0  0  0  0  0  0  0  0  0  0  0
    1.8798    0.0814    7.0720 N   0  0  0  0  0  0  0  0  0  0  0  0
    1.6584    0.7506    5.8744 C   0  0  0  0  0  0  0  0  0  0  0  0
    1.2631    0.3610    8.3619 C   0  0  0  0  0  0  0  0  0  0  0  0
    1.7261   -0.3326    9.6646 C   0  0  0  0  0  0  0  0  0  0  0  0
    3.0968    0.0337   10.2622 C   0  0  0  0  0  0  0  0  0  0  0  0
    3.4347    1.5106   10.5162 C   0  0  0  0  0  0  0  0  0  0  0  0
    2.5105    2.2757   11.4553 C   0  0  0  0  0  0  0  0  0  0  0  0
    1.3000    2.2952   11.2223 O   0  0  0  0  0  0  0  0  0  0  0  0
    3.1065    3.1859   12.5431 C   0  0  0  0  0  0  0  0  0  0  0  0
    3.1316    2.7028   14.0201 C   0  0  0  0  0  0  0  0  0  0  0  0
    1.7817    2.1218   14.4522 C   0  0  0  0  0  0  0  0  0  0  0  0
    1.4896    1.9929   15.8482 O   0  0  0  0  0  0  0  0  0  0  0  0
    0.4012    1.1916   16.1969 C   0  0  0  0  0  0  0  0  0  0  0  0
    0.6031    0.2912   17.3185 C   0  0  0  0  0  0  0  0  0  0  0  0
   -0.5138   -0.4810   17.8277 C   0  0  0  0  0  0  0  0  0  0  0  0
   -1.7981   -0.3402   17.3347 C   0  0  0  0  0  0  0  0  0  0  0  0
   -1.9321    0.5722   16.2696 C   0  0  0  0  0  0  0  0  0  0  0  0
   -0.9057    1.3113   15.6264 C   0  0  0  0  0  0  0  0  0  0  0  0
   -1.3907    2.1917   14.4245 C   0  0  0  0  0  0  0  0  0  0  0  0
   -2.9272    2.1363   14.1035 C   0  0  0  0  0  0  0  0  0  0  0  0
   -1.1264    3.6889   14.7167 C   0  0  0  0  0  0  0  0  0  0  0  0
   -0.8674    1.6730   13.0662 C   0  0  0  0  0  0  0  0  0  0  0  0
   -3.0278   -1.0329   17.8218 C   0  0  0  0  0  0  0  0  0  0  0  0
   -3.3104   -1.8929   18.8120 N   0  0  0  0  0  0  0  0  0  0  0  0
   -4.6888   -2.1889   18.6403 C   0  0  0  0  0  0  0  0  0  0  0  0
   -5.2604   -1.1979   17.8423 C   0  0  0  0  0  0  0  0  0  0  0  0
   -4.1798   -0.8852   17.0825 N   0  0  0  0  0  0  0  0  0  0  0  0
   -6.6015   -1.2059   17.4927 C   0  0  0  0  0  0  0  0  0  0  0  0
   -6.7532   -2.4786   16.9777 C   0  0  0  0  0  0  0  0  0  0  0  0
   -6.4775   -3.5608   17.8257 C   0  0  0  0  0  0  0  0  0  0  0  0
   -5.5144   -3.3339   18.8679 C   0  0  0  0  0  0  0  0  0  0  0  0
   -7.0600   -4.7759   17.5299 N   0  0  0  0  0  0  0  0  0  0  0  0
   -7.3900   -5.7649   18.5463 C   0  0  0  0  0  0  0  0  0  0  0  0
   -6.5102   -7.0125   18.3475 C   0  0  0  0  0  0  0  0  0  0  0  0
   -6.7108   -7.6132   17.0003 N   0  0  0  0  0  0  0  0  0  0  0  0
   -6.3721   -6.5878   15.9793 C   0  0  0  0  0  0  0  0  0  0  0  0
   -7.1762   -5.2737   16.1451 C   0  0  0  0  0  0  0  0  0  0  0  0
   -5.8809   -8.8015   16.8402 C   0  0  0  0  0  0  0  0  0  0  0  0
    1.9572    0.0789   18.0789 C   0  0  0  0  0  0  0  0  0  0  0  0
    3.1753    0.8675   17.5539 C   0  0  0  0  0  0  0  0  0  0  0  0
    1.7739    0.4767   19.5673 C   0  0  0  0  0  0  0  0  0  0  0  0
    2.3772   -1.4149   18.0403 C   0  0  0  0  0  0  0  0  0  0  0  0
    2.4842    2.3388    2.9127 C   0  0  0  0  0  0  0  0  0  0  0  0
    4.0130    2.3695    2.9153 C   0  0  0  0  0  0  0  0  0  0  0  0
    4.7465    1.5850    2.3233 O   0  0  0  0  0  0  0  0  0  0  0  0
    4.5580    3.4103    3.6245 N   0  0  0  0  0  0  0  0  0  0  0  0
    3.8243    4.3715    4.4209 C   0  0  0  0  0  0  0  0  0  0  0  0
    4.0580    5.7879    3.9557 C   0  0  0  0  0  0  0  0  0  0  0  0
    5.4910    6.2141    4.2280 C   0  0  0  0  0  0  0  0  0  0  0  0
    5.6365    7.6769    3.8683 C   0  0  0  0  0  0  0  0  0  0  0  0
    6.9917    8.1328    4.1774 N   0  0  0  0  0  0  0  0  0  0  0  0
    7.1480    9.5539    3.8769 C   0  0  0  0  0  0  0  0  0  0  0  0
    6.2491   10.4581    4.7244 C   0  0  0  0  0  0  0  0  0  0  0  0
    6.4446   10.2160    6.2192 C   0  0  0  0  0  0  0  0  0  0  0  0
    5.5866   11.0729    6.9996 N   0  0  0  0  0  0  0  0  0  0  0  0
    5.9821   12.3313    7.3853 C   0  0  0  0  0  0  0  0  0  0  0  0
    7.0808   12.8446    7.1574 O   0  0  0  0  0  0  0  0  0  0  0  0
    4.9567   13.0315    8.1401 C   0  0  0  0  0  0  0  0  0  0  0  0
    5.1430   14.2687    8.7057 C   0  0  0  0  0  0  0  0  0  0  0  0
    3.7276   14.7718    9.5231 S   0  0  0  0  0  0  0  0  0  0  0  0
    2.9702   13.2990    9.0916 C   0  0  0  0  0  0  0  0  0  0  0  0
    3.7017   12.4759    8.3686 N   0  0  0  0  0  0  0  0  0  0  0  0
    1.6106   12.9099    9.5418 C   0  0  0  0  0  0  0  0  0  0  0  0
    1.0406   11.6983    9.2145 C   0  0  0  0  0  0  0  0  0  0  0  0
   -0.5374   11.6256    9.8533 S   0  0  0  0  0  0  0  0  0  0  0  0
   -0.2908   13.1496   10.6271 C   0  0  0  0  0  0  0  0  0  0  0  0
    0.8626   13.7257   10.3623 N   0  0  0  0  0  0  0  0  0  0  0  0
   -1.3398   13.7713   11.5010 C   0  0  0  0  0  0  0  0  0  0  0  0
   -2.0696   12.7424   12.3582 C   0  0  0  0  0  0  0  0  0  0  0  0
   -3.0167   13.3338   13.2657 N   0  0  0  0  0  0  0  0  0  0  0  0
   -4.1693   13.9587   12.8077 C   0  0  0  0  0  0  0  0  0  0  0  0
   -4.5044   13.9905   11.6191 O   0  0  0  0  0  0  0  0  0  0  0  0
   -4.9382   14.7510   13.9011 C   0  0  3  0  0  0  0  0  0  0  0  0
   -4.9937   14.0922   15.2986 C   0  0  3  0  0  0  0  0  0  0  0  0
   -5.7492   14.8736   16.2391 O   0  0  0  0  0  0  0  0  0  0  0  0
   -5.5415   12.6706   15.2342 C   0  0  0  0  0  0  0  0  0  0  0  0
   -4.3701   16.1107   13.9758 N   0  0  0  0  0  0  0  0  0  0  0  0
   -4.9197   17.1687   13.2555 C   0  0  0  0  0  0  0  0  0  0  0  0
   -5.8518   17.0222   12.4690 O   0  0  0  0  0  0  0  0  0  0  0  0
   -4.2596   18.5189   13.5913 C   0  0  3  0  0  0  0  0  0  0  0  0
   -4.8605   19.6000   12.6858 C   0  0  3  0  0  0  0  0  0  0  0  0
   -4.4025   21.0800   12.8281 C   0  0  3  0  0  0  0  0  0  0  0  0
   -5.1905   21.8590   11.8911 N   0  0  0  0  0  0  0  0  0  0  0  0
   -4.6441   22.8300   11.0773 C   0  0  0  0  0  0  0  0  0  0  0  0
   -3.4950   23.2334   11.2201 O   0  0  0  0  0  0  0  0  0  0  0  0
   -5.6600   23.4696   10.1366 C   0  0  3  0  0  0  0  0  0  0  0  0
   -5.1657   24.8662    9.5554 C   0  0  3  0  0  0  0  0  0  0  0  0
   -4.1238   24.6052    8.5175 C   0  0  0  0  0  0  0  0  0  0  0  0
   -2.7771   24.3590    8.6243 C   0  0  0  0  0  0  0  0  0  0  0  0
   -2.3237   23.7966    7.4765 N   0  0  0  0  0  0  0  0  0  0  0  0
   -3.3047   23.8607    6.6110 C   0  0  0  0  0  0  0  0  0  0  0  0
   -4.4170   24.3880    7.1923 N   0  0  0  0  0  0  0  0  0  0  0  0
   -6.1686   25.6893    8.9628 O   0  0  0  0  0  0  0  0  0  0  0  0
   -6.8417   26.8125    9.5813 C   0  0  3  0  0  0  0  0  0  0  0  0
   -6.3754   27.2223   10.8401 O   0  0  0  0  0  0  0  0  0  0  0  0
   -6.7356   26.4886   12.0077 C   0  0  3  0  0  0  0  0  0  0  0  0
   -6.3570   27.4779   13.1140 C   0  0  0  0  0  0  0  0  0  0  0  0
   -7.2000   28.6176   13.0433 O   0  0  0  0  0  0  0  0  0  0  0  0
   -8.1763   25.8583   12.0160 C   0  0  3  0  0  0  0  0  0  0  0  0
   -8.6484   25.4533   10.5604 C   0  0  3  0  0  0  0  0  0  0  0  0
   -8.4128   26.6400    9.6175 C   0  0  3  0  0  0  0  0  0  0  0  0
   -9.0663   26.4564    8.3327 O   0  0  0  0  0  0  0  0  0  0  0  0
   -9.0205   27.6416    7.4658 C   0  0  3  0  0  0  0  0  0  0  0  0
   -9.6687   28.8248    7.9507 O   0  0  0  0  0  0  0  0  0  0  0  0
  -11.0693   29.0377    7.6041 C   0  0  3  0  0  0  0  0  0  0  0  0
  -11.3616   30.4745    8.0722 C   0  0  0  0  0  0  0  0  0  0  0  0
  -12.6769   30.9863    7.8605 O   0  0  0  0  0  0  0  0  0  0  0  0
  -11.3862   28.7584    6.1095 C   0  0  3  0  0  0  0  0  0  0  0  0
  -10.9048   27.3245    5.8640 C   0  0  3  0  0  0  0  0  0  0  0  0
   -9.4092   27.2999    6.0173 C   0  0  3  0  0  0  0  0  0  0  0  0
   -9.0203   25.9948    5.7629 O   0  0  0  0  0  0  0  0  0  0  0  0
  -11.2800   26.7856    4.5718 O   0  0  0  0  0  0  0  0  0  0  0  0
  -12.1788   25.7594    4.6385 C   0  0  0  0  0  0  0  0  0  0  0  0
  -12.6136   25.2660    5.6716 O   0  0  0  0  0  0  0  0  0  0  0  0
  -12.7142   25.3941    3.4321 N   0  0  0  0  0  0  0  0  0  0  0  0
  -10.7168   29.7183    5.2664 O   0  0  0  0  0  0  0  0  0  0  0  0
   -9.9554   24.9562   10.3952 O   0  0  0  0  0  0  0  0  0  0  0  0
   -9.1085   26.7273   12.6615 O   0  0  0  0  0  0  0  0  0  0  0  0
   -6.3236   22.4698    9.1889 N   0  0  0  0  0  0  0  0  0  0  0  0
   -5.7267   21.4134    8.4429 C   0  0  0  0  0  0  0  0  0  0  0  0
   -4.6139   20.9449    8.6833 O   0  0  0  0  0  0  0  0  0  0  0  0
   -6.4921   20.9113    7.1812 C   0  0  0  0  0  0  0  0  0  0  0  0
   -7.4229   21.7259    6.6965 N   0  0  0  0  0  0  0  0  0  0  0  0
   -7.9278   21.4846    5.4138 C   0  0  0  0  0  0  0  0  0  0  0  0
   -7.5561   20.5000    4.6026 N   0  0  0  0  0  0  0  0  0  0  0  0
   -6.6965   19.6174    5.1220 C   0  0  0  0  0  0  0  0  0  0  0  0
   -6.1588   19.7737    6.4270 C   0  0  0  0  0  0  0  0  0  0  0  0
   -5.2982   18.7153    7.0041 C   0  0  0  0  0  0  0  0  0  0  0  0
   -6.3461   18.5231    4.2994 N   0  0  0  0  0  0  0  0  0  0  0  0
   -9.0277   22.4136    4.8643 C   0  0  3  0  0  0  0  0  0  0  0  0
   -9.2766   23.3105    6.0390 C   0  0  0  0  0  0  0  0  0  0  0  0
   -7.9450   24.0202    6.3953 C   0  0  0  0  0  0  0  0  0  0  0  0
   -6.9449   24.2500    5.7277 O   0  0  0  0  0  0  0  0  0  0  0  0
   -8.1466   24.6392    7.5779 N   0  0  0  0  0  0  0  0  0  0  0  0
   -8.7328   23.3763    3.7466 N   0  0  0  0  0  0  0  0  0  0  0  0
   -8.1289   22.7442    2.5778 C   0  0  0  0  0  0  0  0  0  0  0  0
   -7.4990   23.7207    1.5557 C   0  0  3  0  0  0  0  0  0  0  0  0
   -7.0807   22.9209    0.2964 C   0  0  0  0  0  0  0  0  0  0  0  0
   -7.5087   23.1408   -0.8367 O   0  0  0  0  0  0  0  0  0  0  0  0
   -6.2039   21.8946    0.5785 N   0  0  0  0  0  0  0  0  0  0  0  0
   -8.4583   24.8101    1.2224 N   0  0  0  0  0  0  0  0  0  0  0  0
   -4.6047   21.7735   14.1694 C   0  0  0  0  0  0  0  0  0  0  0  0
   -4.5910   19.2215   11.3107 O   0  0  0  0  0  0  0  0  0  0  0  0
   -4.4376   18.8049   15.0807 C   0  0  0  0  0  0  0  0  0  0  0  0
   -0.4685   -0.5857    2.1882 C   0  0  0  0  0  0  0  0  0  0  0  0
   -0.0886   -2.0602    1.9828 C   0  0  0  0  0  0  0  0  0  0  0  0
    0.9678   -2.3424    1.3948 O   0  0  0  0  0  0  0  0  0  0  0  0
   -0.9293   -3.0854    2.5223 N   0  0  0  0  0  0  0  0  0  0  0  0
   -2.2661   -3.0775    2.9950 C   0  0  0  0  0  0  0  0  0  0  0  0
   -2.8521   -4.1200    3.3351 O   0  0  0  0  0  0  0  0  0  0  0  0
   -3.1090   -1.8223    3.0804 C   0  0  0  0  0  0  0  0  0  0  0  0
   -3.6926   -1.3915    1.7280 C   0  0  0  0  0  0  0  0  0  0  0  0
   -4.7304   -2.3766    1.1944 C   0  0  0  0  0  0  0  0  0  0  0  0
   -5.2523   -1.9011   -0.0416 O   0  0  0  0  0  0  0  0  0  0  0  0
   -6.2076   -2.6834   -0.6346 C   0  0  0  0  0  0  0  0  0  0  0  0
   -6.6822   -3.9170   -0.1730 C   0  0  0  0  0  0  0  0  0  0  0  0
   -7.7041   -4.6158   -0.8542 C   0  0  0  0  0  0  0  0  0  0  0  0
   -8.2595   -4.0891   -2.0221 C   0  0  0  0  0  0  0  0  0  0  0  0
   -7.7544   -2.8471   -2.4720 C   0  0  0  0  0  0  0  0  0  0  0  0
   -6.7416   -2.1573   -1.8006 C   0  0  0  0  0  0  0  0  0  0  0  0
   -9.3511   -4.7409   -2.7800 C   0  0  0  0  0  0  0  0  0  0  0  0
  -10.1042   -5.8260   -2.5766 N   0  0  0  0  0  0  0  0  0  0  0  0
  -10.9502   -5.8773   -3.6851 C   0  0  0  0  0  0  0  0  0  0  0  0
  -10.9540   -4.6276   -4.3029 C   0  0  0  0  0  0  0  0  0  0  0  0
   -9.6905   -4.2322   -4.0067 N   0  0  0  0  0  0  0  0  0  0  0  0
  -11.7441   -4.3371   -5.4046 C   0  0  0  0  0  0  0  0  0  0  0  0
  -11.4632   -5.3872   -6.2507 C   0  0  0  0  0  0  0  0  0  0  0  0
  -11.6862   -6.6798   -5.7840 C   0  0  0  0  0  0  0  0  0  0  0  0
  -11.6039   -6.9171   -4.3877 C   0  0  0  0  0  0  0  0  0  0  0  0
  -11.8324   -7.6597   -6.7280 N   0  0  0  0  0  0  0  0  0  0  0  0
  -13.0191   -8.4945   -6.7516 C   0  0  0  0  0  0  0  0  0  0  0  0
  -12.6313   -9.9390   -6.4250 C   0  0  0  0  0  0  0  0  0  0  0  0
  -11.6256  -10.4492   -7.3853 N   0  0  0  0  0  0  0  0  0  0  0  0
  -10.4057   -9.6126   -7.2926 C   0  0  0  0  0  0  0  0  0  0  0  0
  -10.6925   -8.1076   -7.5298 C   0  0  0  0  0  0  0  0  0  0  0  0
  -11.3312  -11.8484   -7.1188 C   0  0  0  0  0  0  0  0  0  0  0  0
   -0.3578   -4.4526    2.3916 C   0  0  0  0  0  0  0  0  0  0  0  0
    0.3585   -5.0082    3.6363 C   0  0  0  0  0  0  0  0  0  0  0  0
   -0.5580   -5.3250    4.8088 C   0  0  0  0  0  0  0  0  0  0  0  0
   -0.7937    1.8290   -3.2205 H   0  0  0  0  0  0  0  0  0  0  0  0
   -0.3449    0.2039   -2.7241 H   0  0  0  0  0  0  0  0  0  0  0  0
    0.7257    1.5917   -2.3674 H   0  0  0  0  0  0  0  0  0  0  0  0
   -2.1172    1.5021   -1.4257 H   0  0  0  0  0  0  0  0  0  0  0  0
   -0.8880    2.5404   -0.7798 H   0  0  0  0  0  0  0  0  0  0  0  0
   -1.2273   -0.5016   -0.3507 H   0  0  0  0  0  0  0  0  0  0  0  0
   -1.8917    0.8102    0.6213 H   0  0  0  0  0  0  0  0  0  0  0  0
    3.2790   -0.2999    3.0406 H   0  0  0  0  0  0  0  0  0  0  0  0
    1.7060   -0.9501    3.0884 H   0  0  0  0  0  0  0  0  0  0  0  0
    1.0834    1.6633    5.8490 H   0  0  0  0  0  0  0  0  0  0  0  0
    0.2107    0.0765    8.2194 H   0  0  0  0  0  0  0  0  0  0  0  0
    1.2862    1.4458    8.4949 H   0  0  0  0  0  0  0  0  0  0  0  0
    1.6886   -1.4232    9.5360 H   0  0  0  0  0  0  0  0  0  0  0  0
    0.9698   -0.1196   10.4342 H   0  0  0  0  0  0  0  0  0  0  0  0
    3.8692   -0.3821    9.6040 H   0  0  0  0  0  0  0  0  0  0  0  0
    3.1939   -0.5030   11.2169 H   0  0  0  0  0  0  0  0  0  0  0  0
    3.4424    2.0552    9.5656 H   0  0  0  0  0  0  0  0  0  0  0  0
    4.4515    1.5649   10.9203 H   0  0  0  0  0  0  0  0  0  0  0  0
    2.4999    4.1036   12.4981 H   0  0  0  0  0  0  0  0  0  0  0  0
    4.1084    3.4960   12.2290 H   0  0  0  0  0  0  0  0  0  0  0  0
    3.3877    3.5594   14.6586 H   0  0  0  0  0  0  0  0  0  0  0  0
    3.9218    1.9611   14.1674 H   0  0  0  0  0  0  0  0  0  0  0  0
    1.7162    1.1289   14.0053 H   0  0  0  0  0  0  0  0  0  0  0  0
    1.0888    2.8534   14.0570 H   0  0  0  0  0  0  0  0  0  0  0  0
   -0.3613   -1.1741   18.6535 H   0  0  0  0  0  0  0  0  0  0  0  0
   -2.9369    0.7598   15.9275 H   0  0  0  0  0  0  0  0  0  0  0  0
   -3.5460    2.5180   14.9195 H   0  0  0  0  0  0  0  0  0  0  0  0
   -3.2460    1.1118   13.8648 H   0  0  0  0  0  0  0  0  0  0  0  0
   -3.1598    2.7401   13.2158 H   0  0  0  0  0  0  0  0  0  0  0  0
   -1.8778    4.0822   15.4137 H   0  0  0  0  0  0  0  0  0  0  0  0
   -1.1819    4.2886   13.8015 H   0  0  0  0  0  0  0  0  0  0  0  0
   -0.1693    3.9023   15.1978 H   0  0  0  0  0  0  0  0  0  0  0  0
   -1.2563    0.6751   12.8350 H   0  0  0  0  0  0  0  0  0  0  0  0
    0.1891    1.5332   12.9904 H   0  0  0  0  0  0  0  0  0  0  0  0
   -1.1452    2.3495   12.2486 H   0  0  0  0  0  0  0  0  0  0  0  0
   -4.2607   -0.6041   16.1198 H   0  0  0  0  0  0  0  0  0  0  0  0
   -7.2842   -1.0526   18.3495 H   0  0  0  0  0  0  0  0  0  0  0  0
   -6.5509   -2.6046   15.9088 H   0  0  0  0  0  0  0  0  0  0  0  0
   -5.2065   -4.1250   19.5435 H   0  0  0  0  0  0  0  0  0  0  0  0
   -8.4437   -6.0542   18.4121 H   0  0  0  0  0  0  0  0  0  0  0  0
   -7.3136   -5.3761   19.5664 H   0  0  0  0  0  0  0  0  0  0  0  0
   -6.7737   -7.7474   19.1155 H   0  0  0  0  0  0  0  0  0  0  0  0
   -5.4577   -6.7345   18.4892 H   0  0  0  0  0  0  0  0  0  0  0  0
   -6.5730   -6.9872   14.9774 H   0  0  0  0  0  0  0  0  0  0  0  0
   -5.3004   -6.3487   16.0248 H   0  0  0  0  0  0  0  0  0  0  0  0
   -8.2335   -5.4496   15.9114 H   0  0  0  0  0  0  0  0  0  0  0  0
   -6.8028   -4.5675   15.3970 H   0  0  0  0  0  0  0  0  0  0  0  0
   -6.1450   -9.5486   17.5967 H   0  0  0  0  0  0  0  0  0  0  0  0
   -4.8118   -8.5813   16.9314 H   0  0  0  0  0  0  0  0  0  0  0  0
   -6.0595   -9.2656   15.8642 H   0  0  0  0  0  0  0  0  0  0  0  0
    3.0369    1.9489   17.6601 H   0  0  0  0  0  0  0  0  0  0  0  0
    3.3842    0.6280   16.5056 H   0  0  0  0  0  0  0  0  0  0  0  0
    4.0845    0.6203   18.1155 H   0  0  0  0  0  0  0  0  0  0  0  0
    1.5893    1.5514   19.6712 H   0  0  0  0  0  0  0  0  0  0  0  0
    2.6653    0.2271   20.1555 H   0  0  0  0  0  0  0  0  0  0  0  0
    0.9355   -0.0426   20.0445 H   0  0  0  0  0  0  0  0  0  0  0  0
    2.3589   -1.8122   17.0199 H   0  0  0  0  0  0  0  0  0  0  0  0
    1.7346   -2.0466   18.6630 H   0  0  0  0  0  0  0  0  0  0  0  0
    3.3971   -1.5461   18.4265 H   0  0  0  0  0  0  0  0  0  0  0  0
    2.1169    2.5320    3.9168 H   0  0  0  0  0  0  0  0  0  0  0  0
    2.1612    3.1834    2.2924 H   0  0  0  0  0  0  0  0  0  0  0  0
    5.5739    3.4257    3.6165 H   0  0  0  0  0  0  0  0  0  0  0  0
    4.1238    4.2225    5.4612 H   0  0  0  0  0  0  0  0  0  0  0  0
    2.7471    4.2228    4.3774 H   0  0  0  0  0  0  0  0  0  0  0  0
    3.3638    6.4437    4.4972 H   0  0  0  0  0  0  0  0  0  0  0  0
    3.8233    5.8885    2.8879 H   0  0  0  0  0  0  0  0  0  0  0  0
    6.1918    5.6072    3.6445 H   0  0  0  0  0  0  0  0  0  0  0  0
    5.7212    6.0592    5.2899 H   0  0  0  0  0  0  0  0  0  0  0  0
    4.8942    8.2296    4.4542 H   0  0  0  0  0  0  0  0  0  0  0  0
    5.4097    7.8289    2.8065 H   0  0  0  0  0  0  0  0  0  0  0  0
    7.6546    7.5858    3.6265 H   0  0  0  0  0  0  0  0  0  0  0  0
    6.9625    9.7353    2.8117 H   0  0  0  0  0  0  0  0  0  0  0  0
    8.1934    9.8211    4.0653 H   0  0  0  0  0  0  0  0  0  0  0  0
    5.1930   10.3194    4.4602 H   0  0  0  0  0  0  0  0  0  0  0  0
    6.4704   11.5038    4.4805 H   0  0  0  0  0  0  0  0  0  0  0  0
    7.4871   10.4086    6.4947 H   0  0  0  0  0  0  0  0  0  0  0  0
    6.2039    9.1852    6.5004 H   0  0  0  0  0  0  0  0  0  0  0  0
    4.6303   10.7771    7.2210 H   0  0  0  0  0  0  0  0  0  0  0  0
    6.0449   14.8604    8.6584 H   0  0  0  0  0  0  0  0  0  0  0  0
    1.4655   10.8921    8.6270 H   0  0  0  0  0  0  0  0  0  0  0  0
   -2.0391   14.3340   10.8712 H   0  0  0  0  0  0  0  0  0  0  0  0
   -0.8600   14.5125   12.1548 H   0  0  0  0  0  0  0  0  0  0  0  0
   -1.3551   12.1855   12.9746 H   0  0  0  0  0  0  0  0  0  0  0  0
   -2.6257   12.0266   11.7448 H   0  0  0  0  0  0  0  0  0  0  0  0
   -2.8148   13.2384   14.2483 H   0  0  0  0  0  0  0  0  0  0  0  0
   -5.9718   14.8445   13.5406 H   0  0  0  0  0  0  0  0  0  0  0  0
   -3.9825   14.0561   15.7184 H   0  0  0  0  0  0  0  0  0  0  0  0
   -6.6950   14.9011   15.9949 H   0  0  0  0  0  0  0  0  0  0  0  0
   -6.5226   12.6475   14.7498 H   0  0  0  0  0  0  0  0  0  0  0  0
   -5.6592   12.2557   16.2388 H   0  0  0  0  0  0  0  0  0  0  0  0
   -4.8742   12.0070   14.6738 H   0  0  0  0  0  0  0  0  0  0  0  0
   -3.5838   16.3093   14.5844 H   0  0  0  0  0  0  0  0  0  0  0  0
   -3.1919   18.4098   13.3609 H   0  0  0  0  0  0  0  0  0  0  0  0
   -5.9554   19.5772   12.7803 H   0  0  0  0  0  0  0  0  0  0  0  0
   -3.3511   21.1593   12.5296 H   0  0  0  0  0  0  0  0  0  0  0  0
   -6.1738   21.6111   11.8387 H   0  0  0  0  0  0  0  0  0  0  0  0
   -6.4721   23.7313   10.8190 H   0  0  0  0  0  0  0  0  0  0  0  0
   -4.6681   25.4417   10.3450 H   0  0  0  0  0  0  0  0  0  0  0  0
   -2.1406   24.4484    9.4934 H   0  0  0  0  0  0  0  0  0  0  0  0
   -3.2471   23.5418    5.5754 H   0  0  0  0  0  0  0  0  0  0  0  0
   -5.3177   24.5441    6.7592 H   0  0  0  0  0  0  0  0  0  0  0  0
   -6.6528   27.6559    8.9180 H   0  0  0  0  0  0  0  0  0  0  0  0
   -6.0196   25.6635   12.0690 H   0  0  0  0  0  0  0  0  0  0  0  0
   -5.3339   27.8389   12.9344 H   0  0  0  0  0  0  0  0  0  0  0  0
   -6.4045   27.0438   14.1133 H   0  0  0  0  0  0  0  0  0  0  0  0
   -6.6760   29.3888   13.3276 H   0  0  0  0  0  0  0  0  0  0  0  0
   -8.1300   24.9615   12.6528 H   0  0  0  0  0  0  0  0  0  0  0  0
   -8.0532   24.6025   10.2485 H   0  0  0  0  0  0  0  0  0  0  0  0
   -8.9039   27.5030   10.0743 H   0  0  0  0  0  0  0  0  0  0  0  0
   -7.9544   27.8668    7.3963 H   0  0  0  0  0  0  0  0  0  0  0  0
  -11.6468   28.3249    8.2101 H   0  0  0  0  0  0  0  0  0  0  0  0
  -10.6203   31.1520    7.6339 H   0  0  0  0  0  0  0  0  0  0  0  0
  -11.1797   30.4859    9.1529 H   0  0  0  0  0  0  0  0  0  0  0  0
  -12.7904   31.1542    6.9064 H   0  0  0  0  0  0  0  0  0  0  0  0
  -12.4585   28.8106    5.9014 H   0  0  0  0  0  0  0  0  0  0  0  0
  -11.3067   26.6671    6.6497 H   0  0  0  0  0  0  0  0  0  0  0  0
   -8.8973   27.9417    5.2985 H   0  0  0  0  0  0  0  0  0  0  0  0
   -9.2671   25.6218    6.6484 H   0  0  0  0  0  0  0  0  0  0  0  0
  -12.3962   25.7046    2.5255 H   0  0  0  0  0  0  0  0  0  0  0  0
  -13.5836   24.8669    3.4529 H   0  0  0  0  0  0  0  0  0  0  0  0
  -10.3335   29.2204    4.5195 H   0  0  0  0  0  0  0  0  0  0  0  0
  -10.6158   25.3709   10.9782 H   0  0  0  0  0  0  0  0  0  0  0  0
   -9.5766   27.2216   11.9724 H   0  0  0  0  0  0  0  0  0  0  0  0
   -7.2200   22.8086    8.8200 H   0  0  0  0  0  0  0  0  0  0  0  0
   -5.2494   17.8356    6.3603 H   0  0  0  0  0  0  0  0  0  0  0  0
   -5.7329   18.3828    7.9512 H   0  0  0  0  0  0  0  0  0  0  0  0
   -4.2842   19.0853    7.1385 H   0  0  0  0  0  0  0  0  0  0  0  0
   -6.7850   18.5601    3.3714 H   0  0  0  0  0  0  0  0  0  0  0  0
   -6.4888   17.6243    4.7060 H   0  0  0  0  0  0  0  0  0  0  0  0
   -9.9441   21.8745    4.6164 H   0  0  0  0  0  0  0  0  0  0  0  0
   -9.6329   22.7665    6.9246 H   0  0  0  0  0  0  0  0  0  0  0  0
  -10.0748   24.0259    5.8199 H   0  0  0  0  0  0  0  0  0  0  0  0
   -9.0741   24.7276    8.0181 H   0  0  0  0  0  0  0  0  0  0  0  0
   -7.7746   25.5863    7.5525 H   0  0  0  0  0  0  0  0  0  0  0  0
   -8.0813   24.0668    4.1526 H   0  0  0  0  0  0  0  0  0  0  0  0
   -8.9099   22.1566    2.0880 H   0  0  0  0  0  0  0  0  0  0  0  0
   -7.3271   22.0691    2.8770 H   0  0  0  0  0  0  0  0  0  0  0  0
   -6.5882   24.1714    1.9774 H   0  0  0  0  0  0  0  0  0  0  0  0
   -5.5223   21.9370    1.3335 H   0  0  0  0  0  0  0  0  0  0  0  0
   -5.8837   21.3539   -0.2180 H   0  0  0  0  0  0  0  0  0  0  0  0
   -9.2075   24.4556    0.6277 H   0  0  0  0  0  0  0  0  0  0  0  0
   -7.9741   25.5103    0.6429 H   0  0  0  0  0  0  0  0  0  0  0  0
   -5.6111   21.5925   14.5626 H   0  0  0  0  0  0  0  0  0  0  0  0
   -4.5024   22.8623   14.0608 H   0  0  0  0  0  0  0  0  0  0  0  0
   -3.8596   21.4799   14.9050 H   0  0  0  0  0  0  0  0  0  0  0  0
   -3.7517   18.7220   11.2729 H   0  0  0  0  0  0  0  0  0  0  0  0
   -5.4603   19.1284   15.3016 H   0  0  0  0  0  0  0  0  0  0  0  0
   -3.7347   19.5663   15.4176 H   0  0  0  0  0  0  0  0  0  0  0  0
   -4.2367   17.9333   15.7085 H   0  0  0  0  0  0  0  0  0  0  0  0
   -1.5264   -0.4401    2.1647 H   0  0  0  0  0  0  0  0  0  0  0  0
   -0.1966   -0.2322    3.1838 H   0  0  0  0  0  0  0  0  0  0  0  0
   -2.5610   -1.0400    3.6102 H   0  0  0  0  0  0  0  0  0  0  0  0
   -3.9439   -2.0323    3.7649 H   0  0  0  0  0  0  0  0  0  0  0  0
   -2.9181   -1.3036    0.9625 H   0  0  0  0  0  0  0  0  0  0  0  0
   -4.1411   -0.3948    1.8286 H   0  0  0  0  0  0  0  0  0  0  0  0
   -5.5373   -2.4752    1.9270 H   0  0  0  0  0  0  0  0  0  0  0  0
   -4.2383   -3.3408    1.0273 H   0  0  0  0  0  0  0  0  0  0  0  0
   -6.2745   -4.3725    0.7256 H   0  0  0  0  0  0  0  0  0  0  0  0
   -8.0441   -5.5673   -0.4544 H   0  0  0  0  0  0  0  0  0  0  0  0
   -8.1387   -2.3596   -3.3665 H   0  0  0  0  0  0  0  0  0  0  0  0
   -6.3905   -1.2076   -2.1958 H   0  0  0  0  0  0  0  0  0  0  0  0
   -9.1202   -3.6730   -4.6151 H   0  0  0  0  0  0  0  0  0  0  0  0
  -12.8226   -4.3639   -5.1420 H   0  0  0  0  0  0  0  0  0  0  0  0
  -10.8487   -5.2562   -7.1367 H   0  0  0  0  0  0  0  0  0  0  0  0
  -11.6852   -7.9256   -4.0009 H   0  0  0  0  0  0  0  0  0  0  0  0
  -13.4480   -8.4554   -7.7633 H   0  0  0  0  0  0  0  0  0  0  0  0
  -13.7992   -8.1322   -6.0725 H   0  0  0  0  0  0  0  0  0  0  0  0
  -13.5363  -10.5546   -6.4734 H   0  0  0  0  0  0  0  0  0  0  0  0
  -12.2454   -9.9928   -5.3987 H   0  0  0  0  0  0  0  0  0  0  0  0
   -9.6697   -9.9427   -8.0353 H   0  0  0  0  0  0  0  0  0  0  0  0
   -9.9458   -9.7262   -6.3016 H   0  0  0  0  0  0  0  0  0  0  0  0
  -10.9259   -7.9460   -8.5900 H   0  0  0  0  0  0  0  0  0  0  0  0
   -9.7848   -7.5301   -7.3125 H   0  0  0  0  0  0  0  0  0  0  0  0
  -12.2392  -12.4506   -7.2390 H   0  0  0  0  0  0  0  0  0  0  0  0
  -10.9395  -12.0116   -6.1095 H   0  0  0  0  0  0  0  0  0  0  0  0
  -10.6057  -12.2330   -7.8435 H   0  0  0  0  0  0  0  0  0  0  0  0
    0.3673   -4.4755    1.5696 H   0  0  0  0  0  0  0  0  0  0  0  0
   -1.1499   -5.1489    2.0885 H   0  0  0  0  0  0  0  0  0  0  0  0
    1.1566   -4.3332    3.9661 H   0  0  0  0  0  0  0  0  0  0  0  0
    0.8454   -5.9502    3.3448 H   0  0  0  0  0  0  0  0  0  0  0  0
   -0.9723   -4.4123    5.2451 H   0  0  0  0  0  0  0  0  0  0  0  0
   -0.0051   -5.8480    5.5967 H   0  0  0  0  0  0  0  0  0  0  0  0
   -1.3815   -5.9774    4.4996 H   0  0  0  0  0  0  0  0  0  0  0  0
  1  2  1  0  0  0  0
  1191  1  0  0  0  0
  1192  1  0  0  0  0
  1193  1  0  0  0  0
  2  3  1  0  0  0  0
  2194  1  0  0  0  0
  2195  1  0  0  0  0
  3  4  1  0  0  0  0
  3196  1  0  0  0  0
  3197  1  0  0  0  0
  4  5  1  0  0  0  0
  4156  1  0  0  0  0
  5  6  2  0  0  0  0
  5  7  1  0  0  0  0
  7  8  1  0  0  0  0
  7 54  1  0  0  0  0
  8  9  1  0  0  0  0
  8198  1  0  0  0  0
  8199  1  0  0  0  0
  9 10  1  0  0  0  0
  9 13  2  0  0  0  0
 10 11  2  0  0  0  0
 11 12  1  0  0  0  0
 12 13  1  0  0  0  0
 12 14  1  0  0  0  0
 13200  1  0  0  0  0
 14 15  1  0  0  0  0
 14201  1  0  0  0  0
 14202  1  0  0  0  0
 15 16  1  0  0  0  0
 15203  1  0  0  0  0
 15204  1  0  0  0  0
 16 17  1  0  0  0  0
 16205  1  0  0  0  0
 16206  1  0  0  0  0
 17 18  1  0  0  0  0
 17207  1  0  0  0  0
 17208  1  0  0  0  0
 18 19  2  0  0  0  0
 18 20  1  0  0  0  0
 20 21  1  0  0  0  0
 20209  1  0  0  0  0
 20210  1  0  0  0  0
 21 22  1  0  0  0  0
 21211  1  0  0  0  0
 21212  1  0  0  0  0
 22 23  1  0  0  0  0
 22213  1  0  0  0  0
 22214  1  0  0  0  0
 23 24  1  0  0  0  0
 24 25  1  0  0  0  0
 24 29  2  0  0  0  0
 25 26  2  0  0  0  0
 25 50  1  0  0  0  0
 26 27  1  0  0  0  0
 26215  1  0  0  0  0
 27 28  2  0  0  0  0
 27 34  1  0  0  0  0
 28 29  1  0  0  0  0
 28216  1  0  0  0  0
 29 30  1  0  0  0  0
 30 31  1  0  0  0  0
 30 32  1  0  0  0  0
 30 33  1  0  0  0  0
 31217  1  0  0  0  0
 31218  1  0  0  0  0
 31219  1  0  0  0  0
 32220  1  0  0  0  0
 32221  1  0  0  0  0
 32222  1  0  0  0  0
 33223  1  0  0  0  0
 33224  1  0  0  0  0
 33225  1  0  0  0  0
 34 35  2  0  0  0  0
 34 38  1  0  0  0  0
 35 36  1  0  0  0  0
 36 37  1  0  0  0  0
 36 42  2  0  0  0  0
 37 38  1  0  0  0  0
 37 39  2  0  0  0  0
 38226  1  0  0  0  0
 39 40  1  0  0  0  0
 39227  1  0  0  0  0
 40 41  2  0  0  0  0
 40228  1  0  0  0  0
 41 42  1  0  0  0  0
 41 43  1  0  0  0  0
 42229  1  0  0  0  0
 43 44  1  0  0  0  0
 43 48  1  0  0  0  0
 44 45  1  0  0  0  0
 44230  1  0  0  0  0
 44231  1  0  0  0  0
 45 46  1  0  0  0  0
 45232  1  0  0  0  0
 45233  1  0  0  0  0
 46 47  1  0  0  0  0
 46 49  1  0  0  0  0
 47 48  1  0  0  0  0
 47234  1  0  0  0  0
 47235  1  0  0  0  0
 48236  1  0  0  0  0
 48237  1  0  0  0  0
 49238  1  0  0  0  0
 49239  1  0  0  0  0
 49240  1  0  0  0  0
 50 51  1  0  0  0  0
 50 52  1  0  0  0  0
 50 53  1  0  0  0  0
 51241  1  0  0  0  0
 51242  1  0  0  0  0
 51243  1  0  0  0  0
 52244  1  0  0  0  0
 52245  1  0  0  0  0
 52246  1  0  0  0  0
 53247  1  0  0  0  0
 53248  1  0  0  0  0
 53249  1  0  0  0  0
 54 55  1  0  0  0  0
 54250  1  0  0  0  0
 54251  1  0  0  0  0
 55 56  2  0  0  0  0
 55 57  1  0  0  0  0
 57 58  1  0  0  0  0
 57252  1  0  0  0  0
 58 59  1  0  0  0  0
 58253  1  0  0  0  0
 58254  1  0  0  0  0
 59 60  1  0  0  0  0
 59255  1  0  0  0  0
 59256  1  0  0  0  0
 60 61  1  0  0  0  0
 60257  1  0  0  0  0
 60258  1  0  0  0  0
 61 62  1  0  0  0  0
 61259  1  0  0  0  0
 61260  1  0  0  0  0
 62 63  1  0  0  0  0
 62261  1  0  0  0  0
 63 64  1  0  0  0  0
 63262  1  0  0  0  0
 63263  1  0  0  0  0
 64 65  1  0  0  0  0
 64264  1  0  0  0  0
 64265  1  0  0  0  0
 65 66  1  0  0  0  0
 65266  1  0  0  0  0
 65267  1  0  0  0  0
 66 67  1  0  0  0  0
 66268  1  0  0  0  0
 67 68  2  0  0  0  0
 67 69  1  0  0  0  0
 69 70  2  0  0  0  0
 69 73  1  0  0  0  0
 70 71  1  0  0  0  0
 70269  1  0  0  0  0
 71 72  1  0  0  0  0
 72 73  2  0  0  0  0
 72 74  1  0  0  0  0
 74 75  2  0  0  0  0
 74 78  1  0  0  0  0
 75 76  1  0  0  0  0
 75270  1  0  0  0  0
 76 77  1  0  0  0  0
 77 78  2  0  0  0  0
 77 79  1  0  0  0  0
 79 80  1  0  0  0  0
 79271  1  0  0  0  0
 79272  1  0  0  0  0
 80 81  1  0  0  0  0
 80273  1  0  0  0  0
 80274  1  0  0  0  0
 81 82  1  0  0  0  0
 81275  1  0  0  0  0
 82 83  2  0  0  0  0
 82 84  1  0  0  0  0
 84 85  1  0  0  0  0
 84 88  1  0  0  0  0
 84276  1  0  0  0  0
 85 86  1  0  0  0  0
 85 87  1  0  0  0  0
 85277  1  0  0  0  0
 86278  1  0  0  0  0
 87279  1  0  0  0  0
 87280  1  0  0  0  0
 87281  1  0  0  0  0
 88 89  1  0  0  0  0
 88282  1  0  0  0  0
 89 90  2  0  0  0  0
 89 91  1  0  0  0  0
 91 92  1  0  0  0  0
 91155  1  0  0  0  0
 91283  1  0  0  0  0
 92 93  1  0  0  0  0
 92154  1  0  0  0  0
 92284  1  0  0  0  0
 93 94  1  0  0  0  0
 93153  1  0  0  0  0
 93285  1  0  0  0  0
 94 95  1  0  0  0  0
 94286  1  0  0  0  0
 95 96  2  0  0  0  0
 95 97  1  0  0  0  0
 97 98  1  0  0  0  0
 97130  1  0  0  0  0
 97287  1  0  0  0  0
 98 99  1  0  0  0  0
 98104  1  0  0  0  0
 98288  1  0  0  0  0
 99100  2  0  0  0  0
 99103  1  0  0  0  0
100101  1  0  0  0  0
100289  1  0  0  0  0
101102  2  0  0  0  0
102103  1  0  0  0  0
102290  1  0  0  0  0
103291  1  0  0  0  0
104105  1  0  0  0  0
105106  1  0  0  0  0
105112  1  0  0  0  0
105292  1  0  0  0  0
106107  1  0  0  0  0
107108  1  0  0  0  0
107110  1  0  0  0  0
107293  1  0  0  0  0
108109  1  0  0  0  0
108294  1  0  0  0  0
108295  1  0  0  0  0
109296  1  0  0  0  0
110111  1  0  0  0  0
110129  1  0  0  0  0
110297  1  0  0  0  0
111112  1  0  0  0  0
111128  1  0  0  0  0
111298  1  0  0  0  0
112113  1  0  0  0  0
112299  1  0  0  0  0
113114  1  0  0  0  0
114115  1  0  0  0  0
114121  1  0  0  0  0
114300  1  0  0  0  0
115116  1  0  0  0  0
116117  1  0  0  0  0
116119  1  0  0  0  0
116301  1  0  0  0  0
117118  1  0  0  0  0
117302  1  0  0  0  0
117303  1  0  0  0  0
118304  1  0  0  0  0
119120  1  0  0  0  0
119127  1  0  0  0  0
119305  1  0  0  0  0
120121  1  0  0  0  0
120123  1  0  0  0  0
120306  1  0  0  0  0
121122  1  0  0  0  0
121307  1  0  0  0  0
122308  1  0  0  0  0
123124  1  0  0  0  0
124125  2  0  0  0  0
124126  1  0  0  0  0
126309  1  0  0  0  0
126310  1  0  0  0  0
127311  1  0  0  0  0
128312  1  0  0  0  0
129313  1  0  0  0  0
130131  1  0  0  0  0
130314  1  0  0  0  0
131132  2  0  0  0  0
131133  1  0  0  0  0
133134  1  0  0  0  0
133138  2  0  0  0  0
134135  2  0  0  0  0
135136  1  0  0  0  0
135141  1  0  0  0  0
136137  2  0  0  0  0
137138  1  0  0  0  0
137140  1  0  0  0  0
138139  1  0  0  0  0
139315  1  0  0  0  0
139316  1  0  0  0  0
139317  1  0  0  0  0
140318  1  0  0  0  0
140319  1  0  0  0  0
141142  1  0  0  0  0
141146  1  0  0  0  0
141320  1  0  0  0  0
142143  1  0  0  0  0
142321  1  0  0  0  0
142322  1  0  0  0  0
143144  2  0  0  0  0
143145  1  0  0  0  0
145323  1  0  0  0  0
145324  1  0  0  0  0
146147  1  0  0  0  0
146325  1  0  0  0  0
147148  1  0  0  0  0
147326  1  0  0  0  0
147327  1  0  0  0  0
148149  1  0  0  0  0
148152  1  0  0  0  0
148328  1  0  0  0  0
149150  2  0  0  0  0
149151  1  0  0  0  0
151329  1  0  0  0  0
151330  1  0  0  0  0
152331  1  0  0  0  0
152332  1  0  0  0  0
153333  1  0  0  0  0
153334  1  0  0  0  0
153335  1  0  0  0  0
154336  1  0  0  0  0
155337  1  0  0  0  0
155338  1  0  0  0  0
155339  1  0  0  0  0
156157  1  0  0  0  0
156340  1  0  0  0  0
156341  1  0  0  0  0
157158  2  0  0  0  0
157159  1  0  0  0  0
159160  1  0  0  0  0
159188  1  0  0  0  0
160161  2  0  0  0  0
160162  1  0  0  0  0
162163  1  0  0  0  0
162342  1  0  0  0  0
162343  1  0  0  0  0
163164  1  0  0  0  0
163344  1  0  0  0  0
163345  1  0  0  0  0
164165  1  0  0  0  0
164346  1  0  0  0  0
164347  1  0  0  0  0
165166  1  0  0  0  0
166167  1  0  0  0  0
166171  2  0  0  0  0
167168  2  0  0  0  0
167348  1  0  0  0  0
168169  1  0  0  0  0
168349  1  0  0  0  0
169170  2  0  0  0  0
169172  1  0  0  0  0
170171  1  0  0  0  0
170350  1  0  0  0  0
171351  1  0  0  0  0
172173  2  0  0  0  0
172176  1  0  0  0  0
173174  1  0  0  0  0
174175  1  0  0  0  0
174180  2  0  0  0  0
175176  1  0  0  0  0
175177  2  0  0  0  0
176352  1  0  0  0  0
177178  1  0  0  0  0
177353  1  0  0  0  0
178179  2  0  0  0  0
178354  1  0  0  0  0
179180  1  0  0  0  0
179181  1  0  0  0  0
180355  1  0  0  0  0
181182  1  0  0  0  0
181186  1  0  0  0  0
182183  1  0  0  0  0
182356  1  0  0  0  0
182357  1  0  0  0  0
183184  1  0  0  0  0
183358  1  0  0  0  0
183359  1  0  0  0  0
184185  1  0  0  0  0
184187  1  0  0  0  0
185186  1  0  0  0  0
185360  1  0  0  0  0
185361  1  0  0  0  0
186362  1  0  0  0  0
186363  1  0  0  0  0
187364  1  0  0  0  0
187365  1  0  0  0  0
187366  1  0  0  0  0
188189  1  0  0  0  0
188367  1  0  0  0  0
188368  1  0  0  0  0
189190  1  0  0  0  0
189369  1  0  0  0  0
189370  1  0  0  0  0
190371  1  0  0  0  0
190372  1  0  0  0  0
190373  1  0  0  0  0
M  END
$$$$
