Target_lig_148
 OpenBabel04172516553D

 83 89  0  0  1  0  0  0  0  0999 V2000
    8.3373   -3.2838   -2.6042 C   0  0  0  0  0  0  0  0  0  0  0  0
    7.0923   -4.0104   -3.1576 C   0  0  3  0  0  0  0  0  0  0  0  0
    6.9676   -3.7128   -4.6643 C   0  0  3  0  0  0  0  0  0  0  0  0
    6.6721   -2.2729   -4.7466 C   0  0  3  0  0  0  0  0  0  0  0  0
    5.3776   -2.2485   -4.0778 C   0  0  3  0  0  0  0  0  0  0  0  0
    5.4061   -2.0559   -2.6442 C   0  0  3  0  0  0  0  0  0  0  0  0
    5.7429   -3.6102   -2.4493 O   0  0  0  0  0  0  0  0  0  0  0  0
    4.4127   -0.5772   -3.0485 O   0  0  0  0  0  0  0  0  0  0  0  0
    4.1946    0.3306   -4.7046 C   0  0  3  0  0  0  0  0  0  0  0  0
    4.5157    2.2881   -6.0813 C   0  0  3  0  0  0  0  0  0  0  0  0
    6.8124    5.8712   -7.6893 C   0  0  0  0  0  0  0  0  0  0  0  0
    5.7407    5.0925   -6.9439 C   0  0  0  0  0  0  0  0  0  0  0  0
    4.8214    4.4246   -6.3046 C   0  0  0  0  0  0  0  0  0  0  0  0
    3.5871    4.0007   -5.4748 C   0  0  3  0  0  0  0  0  0  0  0  0
    2.4848    2.6448   -6.3757 C   0  0  3  0  0  0  0  0  0  0  0  0
    2.2689    3.9269   -5.8802 O   0  0  0  0  0  0  0  0  0  0  0  0
    2.5980    1.3398   -5.7009 C   0  0  0  0  0  0  0  0  0  0  0  0
    2.4142    0.1652   -5.1654 C   0  0  0  0  0  0  0  0  0  0  0  0
    2.1998   -1.2040   -4.5412 C   0  0  0  0  0  0  0  0  0  0  0  0
    0.9663   -1.1473   -4.1697 C   0  0  0  0  0  0  0  0  0  0  0  0
    2.6891   -1.2453   -3.8609 C   0  0  3  0  0  0  0  0  0  0  0  0
    1.8578   -2.4783   -2.5353 O   0  0  0  0  0  0  0  0  0  0  0  0
    0.7354   -3.8160   -2.1396 C   0  0  0  0  0  0  0  0  0  0  0  0
    0.2075   -4.6494   -2.9377 O   0  0  0  0  0  0  0  0  0  0  0  0
    0.1596   -4.4141   -0.5307 C   0  0  0  0  0  0  0  0  0  0  0  0
   -0.6263   -5.6396   -0.2543 C   0  0  0  0  0  0  0  0  0  0  0  0
   -1.0112   -6.1079    1.0601 C   0  0  0  0  0  0  0  0  0  0  0  0
   -0.4078   -5.5643    2.1733 C   0  0  0  0  0  0  0  0  0  0  0  0
    0.1570   -4.3062    2.0203 C   0  0  0  0  0  0  0  0  0  0  0  0
    0.3958   -3.7461    0.6814 C   0  0  0  0  0  0  0  0  0  0  0  0
    0.8883   -2.4681    0.6169 C   0  0  0  0  0  0  0  0  0  0  0  0
    1.1521   -1.7221    1.7588 C   0  0  0  0  0  0  0  0  0  0  0  0
    0.9281   -2.2627    3.0154 C   0  0  0  0  0  0  0  0  0  0  0  0
    0.4434   -3.5530    3.1733 C   0  0  0  0  0  0  0  0  0  0  0  0
    0.2056   -4.0279    4.5813 C   0  0  0  0  0  0  0  0  0  0  0  0
    1.6349   -0.4613    1.5482 O   0  0  0  0  0  0  0  0  0  0  0  0
    1.9034    0.2883    2.7303 C   0  0  0  0  0  0  0  0  0  0  0  0
   -1.0041   -6.5514   -1.2199 O   0  0  0  0  0  0  0  0  0  0  0  0
    2.5466    2.2991   -7.8630 C   0  0  3  0  0  0  0  0  0  0  0  0
    1.6204    1.1560   -8.2848 C   0  0  0  0  0  0  0  0  0  0  0  0
    2.4479    0.0143   -8.5053 O   0  0  0  0  0  0  0  0  0  0  0  0
    3.7370    0.4240   -8.5664 C   0  0  0  0  0  0  0  0  0  0  0  0
    4.6798   -0.2925   -8.8567 O   0  0  0  0  0  0  0  0  0  0  0  0
    3.8307    1.7531   -8.2727 O   0  0  0  0  0  0  0  0  0  0  0  0
    4.1599   -3.0331   -4.4991 N   0  0  0  0  0  0  0  0  0  0  0  0
    3.4709   -2.7277   -5.8591 C   0  0  0  0  0  0  0  0  0  0  0  0
    6.4530   -1.7079   -6.0229 O   0  0  0  0  0  0  0  0  0  0  0  0
    5.8993   -4.5032   -5.2140 O   0  0  0  0  0  0  0  0  0  0  0  0
    9.2139   -3.4642   -3.2464 H   0  0  0  0  0  0  0  0  0  0  0  0
    8.5723   -3.6011   -1.5888 H   0  0  0  0  0  0  0  0  0  0  0  0
    8.2138   -2.2002   -2.5646 H   0  0  0  0  0  0  0  0  0  0  0  0
    7.2751   -5.0964   -3.0870 H   0  0  0  0  0  0  0  0  0  0  0  0
    7.8402   -3.8401   -5.2840 H   0  0  0  0  0  0  0  0  0  0  0  0
    7.3698   -1.5732   -4.2486 H   0  0  0  0  0  0  0  0  0  0  0  0
    5.5015   -1.2291   -4.1951 H   0  0  0  0  0  0  0  0  0  0  0  0
    6.2540   -1.6307   -2.1597 H   0  0  0  0  0  0  0  0  0  0  0  0
    4.5109   -0.5412   -5.4197 H   0  0  0  0  0  0  0  0  0  0  0  0
    5.4214    1.6181   -6.2619 H   0  0  0  0  0  0  0  0  0  0  0  0
    6.4677    5.7047   -8.7033 H   0  0  0  0  0  0  0  0  0  0  0  0
    7.5610    6.0299   -6.9280 H   0  0  0  0  0  0  0  0  0  0  0  0
    3.9963    3.6424   -4.5091 H   0  0  0  0  0  0  0  0  0  0  0  0
    0.0401   -0.6660   -4.0900 H   0  0  0  0  0  0  0  0  0  0  0  0
    2.2415   -2.7095   -4.3686 H   0  0  0  0  0  0  0  0  0  0  0  0
   -1.7768   -6.8770    1.2272 H   0  0  0  0  0  0  0  0  0  0  0  0
   -0.4240   -6.0826    3.1378 H   0  0  0  0  0  0  0  0  0  0  0  0
    1.0537   -2.0290   -0.3519 H   0  0  0  0  0  0  0  0  0  0  0  0
    1.1256   -1.6783    3.9039 H   0  0  0  0  0  0  0  0  0  0  0  0
    0.4868   -3.2608    5.3139 H   0  0  0  0  0  0  0  0  0  0  0  0
    0.8171   -4.9118    4.7775 H   0  0  0  0  0  0  0  0  0  0  0  0
   -0.8541   -4.2551    4.7344 H   0  0  0  0  0  0  0  0  0  0  0  0
    2.2883    1.2639    2.4329 H   0  0  0  0  0  0  0  0  0  0  0  0
    2.6681   -0.2011    3.3466 H   0  0  0  0  0  0  0  0  0  0  0  0
    0.9877    0.4506    3.3125 H   0  0  0  0  0  0  0  0  0  0  0  0
   -0.6020   -6.2530   -2.0565 H   0  0  0  0  0  0  0  0  0  0  0  0
    2.3637    3.2080   -8.3999 H   0  0  0  0  0  0  0  0  0  0  0  0
    1.1008    1.4080   -9.2064 H   0  0  0  0  0  0  0  0  0  0  0  0
    0.8264    0.8568   -7.5948 H   0  0  0  0  0  0  0  0  0  0  0  0
    3.5436   -2.9712   -3.6346 H   0  0  0  0  0  0  0  0  0  0  0  0
    4.1852   -2.3466   -6.5247 H   0  0  0  0  0  0  0  0  0  0  0  0
    2.6608   -1.9844   -6.1949 H   0  0  0  0  0  0  0  0  0  0  0  0
    2.7636   -3.5126   -6.0788 H   0  0  0  0  0  0  0  0  0  0  0  0
    5.7735   -2.2941   -6.3811 H   0  0  0  0  0  0  0  0  0  0  0  0
    5.0708   -4.2915   -4.6862 H   0  0  0  0  0  0  0  0  0  0  0  0
  1  2  1  0  0  0  0
  1 49  1  0  0  0  0
  1 50  1  0  0  0  0
  1 51  1  0  0  0  0
  2  3  1  0  0  0  0
  2  7  1  0  0  0  0
  2 52  1  0  0  0  0
  3  4  1  0  0  0  0
  3 48  1  0  0  0  0
  3 53  1  0  0  0  0
  4  5  1  0  0  0  0
  4 47  1  0  0  0  0
  4 54  1  0  0  0  0
  5  6  1  0  0  0  0
  5 45  1  0  0  0  0
  5 55  1  0  0  0  0
  6  7  1  0  0  0  0
  6  8  1  0  0  0  0
  6 56  1  0  0  0  0
  8  9  1  0  0  0  0
  9 10  1  0  0  0  0
  9 21  1  0  0  0  0
  9 57  1  0  0  0  0
 10 11  1  0  0  0  0
 10 19  1  0  0  0  0
 10 58  1  0  0  0  0
 11 12  1  0  0  0  0
 11 59  1  0  0  0  0
 11 60  1  0  0  0  0
 12 13  3  0  0  0  0
 13 14  1  0  0  0  0
 14 15  1  0  0  0  0
 14 16  1  0  0  0  0
 14 61  1  0  0  0  0
 15 16  1  0  0  0  0
 15 17  1  0  0  0  0
 15 39  1  0  0  0  0
 17 18  3  0  0  0  0
 18 19  1  0  0  0  0
 19 20  2  3  0  0  0
 20 21  1  0  0  0  0
 20 62  1  0  0  0  0
 21 22  1  0  0  0  0
 21 63  1  0  0  0  0
 22 23  1  0  0  0  0
 23 24  2  0  0  0  0
 23 25  1  0  0  0  0
 25 26  2  0  0  0  0
 25 30  1  0  0  0  0
 26 27  1  0  0  0  0
 26 38  1  0  0  0  0
 27 28  2  0  0  0  0
 27 64  1  0  0  0  0
 28 29  1  0  0  0  0
 28 65  1  0  0  0  0
 29 30  2  0  0  0  0
 29 34  1  0  0  0  0
 30 31  1  0  0  0  0
 31 32  2  0  0  0  0
 31 66  1  0  0  0  0
 32 33  1  0  0  0  0
 32 36  1  0  0  0  0
 33 34  2  0  0  0  0
 33 67  1  0  0  0  0
 34 35  1  0  0  0  0
 35 68  1  0  0  0  0
 35 69  1  0  0  0  0
 35 70  1  0  0  0  0
 36 37  1  0  0  0  0
 37 71  1  0  0  0  0
 37 72  1  0  0  0  0
 37 73  1  0  0  0  0
 38 74  1  0  0  0  0
 39 40  1  0  0  0  0
 39 44  1  0  0  0  0
 39 75  1  0  0  0  0
 40 41  1  0  0  0  0
 40 76  1  0  0  0  0
 40 77  1  0  0  0  0
 41 42  1  0  0  0  0
 42 43  2  0  0  0  0
 42 44  1  0  0  0  0
 45 46  1  0  0  0  0
 45 78  1  0  0  0  0
 46 79  1  0  0  0  0
 46 80  1  0  0  0  0
 46 81  1  0  0  0  0
 47 82  1  0  0  0  0
 48 83  1  0  0  0  0
M  END
$$$$
Target_lig_149
 OpenBabel04172516553D

 83 90  0  0  1  0  0  0  0  0999 V2000
   -1.5025   -2.5110   -2.5516 C   0  0  0  0  0  0  0  0  0  0  0  0
   -0.4089   -1.7563   -2.0951 C   0  0  0  0  0  0  0  0  0  0  0  0
    0.1536   -2.1184   -0.8597 C   0  0  0  0  0  0  0  0  0  0  0  0
   -0.4613   -3.0298    0.0078 C   0  0  0  0  0  0  0  0  0  0  0  0
   -1.6826   -3.5613   -0.3598 C   0  0  0  0  0  0  0  0  0  0  0  0
   -2.2469   -3.2211   -1.6014 C   0  0  0  0  0  0  0  0  0  0  0  0
   -3.7557   -3.1338   -1.6323 C   0  0  0  0  0  0  0  0  0  0  0  0
    0.1183   -3.1211    1.2419 O   0  0  0  0  0  0  0  0  0  0  0  0
   -0.2371   -4.1974    2.0995 C   0  0  0  0  0  0  0  0  0  0  0  0
   -0.1622   -0.4481   -2.8859 C   0  0  1  0  0  0  0  0  0  0  0  0
   -0.1516   -0.7946   -4.3845 C   0  0  0  0  0  0  0  0  0  0  0  0
    0.6443   -0.3379   -5.2024 O   0  0  0  0  0  0  0  0  0  0  0  0
   -1.2433   -1.6780   -4.8654 C   0  0  0  0  0  0  0  0  0  0  0  0
   -1.8985   -2.4333   -3.9727 C   0  0  0  0  0  0  0  0  0  0  0  0
   -1.4198    0.4709   -2.7287 C   0  0  0  0  0  0  0  0  0  0  0  0
   -2.5978    0.1449   -2.7437 O   0  0  0  0  0  0  0  0  0  0  0  0
   -1.0549    1.7779   -2.7081 O   0  0  0  0  0  0  0  0  0  0  0  0
    0.2303    1.8203   -2.1408 C   0  0  2  0  0  0  0  0  0  0  0  0
    0.9830    0.5600   -2.5718 C   0  0  1  0  0  0  0  0  0  0  0  0
    1.8640    0.3870   -1.3755 C   0  0  0  0  0  0  0  0  0  0  0  0
    1.2198    0.8109   -0.2066 C   0  0  0  0  0  0  0  0  0  0  0  0
    0.1762    1.8207   -0.5808 C   0  0  2  0  0  0  0  0  0  0  0  0
   -1.1001    1.5333   -0.0757 O   0  0  0  0  0  0  0  0  0  0  0  0
   -1.2721    1.7658    1.3157 C   0  0  1  0  0  0  0  0  0  0  0  0
   -0.8251    3.2133    1.7709 C   0  0  1  0  0  0  0  0  0  0  0  0
   -2.0812    3.9088    2.3114 C   0  0  1  0  0  0  0  0  0  0  0  0
   -2.6777    3.1010    3.4629 C   0  0  2  0  0  0  0  0  0  0  0  0
   -2.9625    1.6553    2.9899 C   0  0  2  0  0  0  0  0  0  0  0  0
   -2.6418    1.5054    1.5999 O   0  0  0  0  0  0  0  0  0  0  0  0
   -4.4170    1.2274    3.0971 C   0  0  0  0  0  0  0  0  0  0  0  0
   -3.8464    3.7854    3.9240 O   0  0  0  0  0  0  0  0  0  0  0  0
   -1.8547    5.2688    2.7069 O   0  0  0  0  0  0  0  0  0  0  0  0
    0.3624    3.1402    2.6825 N   0  0  0  0  0  0  0  0  0  0  0  0
    0.8818    4.4383    3.1048 C   0  0  0  0  0  0  0  0  0  0  0  0
    1.7084    0.4827    1.0560 C   0  0  0  0  0  0  0  0  0  0  0  0
    3.0187    0.1002    1.1092 C   0  0  0  0  0  0  0  0  0  0  0  0
    3.7702    0.1650   -0.0660 C   0  0  0  0  0  0  0  0  0  0  0  0
    3.2036    0.0828   -1.3309 C   0  0  0  0  0  0  0  0  0  0  0  0
    5.0832    0.7848    0.3494 C   0  0  2  0  0  0  0  0  0  0  0  0
    5.1217    0.3712    1.8082 C   0  0  0  0  0  0  0  0  0  0  0  0
    3.9107    0.0148    2.2613 C   0  0  0  0  0  0  0  0  0  0  0  0
    5.0334    2.3631    0.1954 C   0  0  1  0  0  0  0  0  0  0  0  0
    4.3422    2.8046   -0.9841 O   0  0  0  0  0  0  0  0  0  0  0  0
    3.3031    3.6105   -0.6318 C   0  0  0  0  0  0  0  0  0  0  0  0
    2.4940    4.0802   -1.4222 O   0  0  0  0  0  0  0  0  0  0  0  0
    3.2409    3.8012    0.7072 O   0  0  0  0  0  0  0  0  0  0  0  0
    4.3652    3.1701    1.2946 C   0  0  0  0  0  0  0  0  0  0  0  0
    6.1680    0.2237   -0.3547 O   0  0  0  0  0  0  0  0  0  0  0  0
    1.0609   -1.6783   -0.4807 H   0  0  0  0  0  0  0  0  0  0  0  0
   -2.2956   -4.1168    0.3398 H   0  0  0  0  0  0  0  0  0  0  0  0
   -4.1691   -3.0673   -2.6384 H   0  0  0  0  0  0  0  0  0  0  0  0
   -4.0208   -2.2052   -1.1040 H   0  0  0  0  0  0  0  0  0  0  0  0
   -4.2199   -3.9698   -1.1066 H   0  0  0  0  0  0  0  0  0  0  0  0
   -1.2356   -4.6108    1.9515 H   0  0  0  0  0  0  0  0  0  0  0  0
    0.5081   -4.9902    1.9908 H   0  0  0  0  0  0  0  0  0  0  0  0
   -0.1977   -3.8337    3.1321 H   0  0  0  0  0  0  0  0  0  0  0  0
   -1.4988   -1.6312   -5.9157 H   0  0  0  0  0  0  0  0  0  0  0  0
   -2.7157   -3.0619   -4.3081 H   0  0  0  0  0  0  0  0  0  0  0  0
    0.7445    2.7119   -2.5162 H   0  0  0  0  0  0  0  0  0  0  0  0
    1.6028    0.7969   -3.4434 H   0  0  0  0  0  0  0  0  0  0  0  0
    0.5264    2.8125   -0.2967 H   0  0  0  0  0  0  0  0  0  0  0  0
   -0.7300    0.9910    1.8585 H   0  0  0  0  0  0  0  0  0  0  0  0
   -0.5078    3.8192    0.9191 H   0  0  0  0  0  0  0  0  0  0  0  0
   -2.8185    3.9804    1.4995 H   0  0  0  0  0  0  0  0  0  0  0  0
   -1.9886    3.0797    4.3173 H   0  0  0  0  0  0  0  0  0  0  0  0
   -2.3420    0.9516    3.5614 H   0  0  0  0  0  0  0  0  0  0  0  0
   -5.0443    1.8378    2.4370 H   0  0  0  0  0  0  0  0  0  0  0  0
   -4.5298    0.1932    2.7501 H   0  0  0  0  0  0  0  0  0  0  0  0
   -4.7904    1.2949    4.1209 H   0  0  0  0  0  0  0  0  0  0  0  0
   -3.6116    4.7352    3.8719 H   0  0  0  0  0  0  0  0  0  0  0  0
   -1.3750    5.6928    1.9718 H   0  0  0  0  0  0  0  0  0  0  0  0
    1.1229    2.7016    2.1636 H   0  0  0  0  0  0  0  0  0  0  0  0
    1.8315    4.2872    3.6308 H   0  0  0  0  0  0  0  0  0  0  0  0
    0.2192    4.9403    3.8141 H   0  0  0  0  0  0  0  0  0  0  0  0
    1.0853    5.0899    2.2471 H   0  0  0  0  0  0  0  0  0  0  0  0
    1.1955    0.6678    1.9873 H   0  0  0  0  0  0  0  0  0  0  0  0
    3.7903   -0.0029   -2.2378 H   0  0  0  0  0  0  0  0  0  0  0  0
    6.0192    0.4071    2.4169 H   0  0  0  0  0  0  0  0  0  0  0  0
    3.6065   -0.2786    3.2502 H   0  0  0  0  0  0  0  0  0  0  0  0
    6.0646    2.7057    0.0866 H   0  0  0  0  0  0  0  0  0  0  0  0
    4.0229    2.6175    2.1663 H   0  0  0  0  0  0  0  0  0  0  0  0
    5.0379    3.9481    1.6690 H   0  0  0  0  0  0  0  0  0  0  0  0
    5.9002    0.1492   -1.2858 H   0  0  0  0  0  0  0  0  0  0  0  0
  1  2  1  0  0  0  0
  1  6  2  0  0  0  0
  1 14  1  0  0  0  0
  2  3  2  0  0  0  0
  3  4  1  0  0  0  0
  3 49  1  0  0  0  0
  4  5  2  0  0  0  0
  4  8  1  0  0  0  0
  5  6  1  0  0  0  0
  5 50  1  0  0  0  0
  6  7  1  0  0  0  0
  7 51  1  0  0  0  0
  7 52  1  0  0  0  0
  7 53  1  0  0  0  0
  8  9  1  0  0  0  0
  9 54  1  0  0  0  0
  9 55  1  0  0  0  0
  9 56  1  0  0  0  0
 10  2  1  1  0  0  0
 10 11  1  0  0  0  0
 10 15  1  0  0  0  0
 10 19  1  0  0  0  0
 11 12  2  0  0  0  0
 11 13  1  0  0  0  0
 13 14  2  0  0  0  0
 13 57  1  0  0  0  0
 14 58  1  0  0  0  0
 15 16  2  0  0  0  0
 15 17  1  0  0  0  0
 17 18  1  0  0  0  0
 18 19  1  0  0  0  0
 18 22  1  0  0  0  0
 18 59  1  6  0  0  0
 19 20  1  0  0  0  0
 19 60  1  6  0  0  0
 20 21  1  0  0  0  0
 20 38  2  0  0  0  0
 21 22  1  0  0  0  0
 21 35  2  0  0  0  0
 22 23  1  0  0  0  0
 22 61  1  1  0  0  0
 23 24  1  0  0  0  0
 24 25  1  0  0  0  0
 24 29  1  0  0  0  0
 24 62  1  1  0  0  0
 25 26  1  0  0  0  0
 25 33  1  0  0  0  0
 25 63  1  6  0  0  0
 26 27  1  0  0  0  0
 26 32  1  0  0  0  0
 26 64  1  6  0  0  0
 27 28  1  0  0  0  0
 27 31  1  0  0  0  0
 27 65  1  1  0  0  0
 28 29  1  0  0  0  0
 28 30  1  0  0  0  0
 28 66  1  1  0  0  0
 30 67  1  0  0  0  0
 30 68  1  0  0  0  0
 30 69  1  0  0  0  0
 31 70  1  0  0  0  0
 32 71  1  0  0  0  0
 33 34  1  0  0  0  0
 33 72  1  0  0  0  0
 34 73  1  0  0  0  0
 34 74  1  0  0  0  0
 34 75  1  0  0  0  0
 35 36  1  0  0  0  0
 35 76  1  0  0  0  0
 36 37  2  0  0  0  0
 36 41  1  0  0  0  0
 37 38  1  0  0  0  0
 37 39  1  0  0  0  0
 38 77  1  0  0  0  0
 39 40  1  0  0  0  0
 39 42  1  0  0  0  0
 39 48  1  6  0  0  0
 40 41  2  0  0  0  0
 40 78  1  0  0  0  0
 41 79  1  0  0  0  0
 42 43  1  0  0  0  0
 42 47  1  0  0  0  0
 42 80  1  6  0  0  0
 43 44  1  0  0  0  0
 44 45  2  0  0  0  0
 44 46  1  0  0  0  0
 46 47  1  0  0  0  0
 47 81  1  0  0  0  0
 47 82  1  0  0  0  0
 48 83  1  0  0  0  0
M  END
$$$$
Target_lig_150
 OpenBabel04172516553D

 66 72  0  0  1  0  0  0  0  0999 V2000
    1.4521    6.7453    2.5517 C   0  0  0  0  0  0  0  0  0  0  0  0
    1.5287    7.1264    1.2092 C   0  0  0  0  0  0  0  0  0  0  0  0
    2.8702    7.2007    0.8016 C   0  0  0  0  0  0  0  0  0  0  0  0
    3.9213    7.4418    1.7301 C   0  0  0  0  0  0  0  0  0  0  0  0
    3.6247    7.6592    3.0627 C   0  0  0  0  0  0  0  0  0  0  0  0
    2.3682    7.2841    3.4754 C   0  0  0  0  0  0  0  0  0  0  0  0
    0.3671    8.1902    0.8208 C   0  0  2  0  0  0  0  0  0  0  0  0
   -0.2059    8.5981    2.2064 C   0  0  0  0  0  0  0  0  0  0  0  0
   -0.3853    9.7588    2.5567 O   0  0  0  0  0  0  0  0  0  0  0  0
   -0.6792    7.4165    3.0533 C   0  0  0  0  0  0  0  0  0  0  0  0
    0.1527    6.3774    3.0494 C   0  0  0  0  0  0  0  0  0  0  0  0
   -1.2111    8.1722    0.2209 C   0  0  1  0  0  0  0  0  0  0  0  0
   -1.1699    7.9890   -1.1815 O   0  0  0  0  0  0  0  0  0  0  0  0
    0.1601    8.2350   -1.4897 C   0  0  2  0  0  0  0  0  0  0  0  0
    0.7934    9.1508   -0.3676 C   0  0  2  0  0  0  0  0  0  0  0  0
    2.0329    9.5279   -1.1349 C   0  0  0  0  0  0  0  0  0  0  0  0
    1.7979    9.5347   -2.5434 C   0  0  0  0  0  0  0  0  0  0  0  0
    0.5217    8.8751   -2.7988 C   0  0  0  0  0  0  0  0  0  0  0  0
    0.0162    8.6957   -3.8789 O   0  0  0  0  0  0  0  0  0  0  0  0
    2.7838    9.5001   -3.4755 C   0  0  0  0  0  0  0  0  0  0  0  0
    3.9142    8.8857   -2.9772 C   0  0  0  0  0  0  0  0  0  0  0  0
    4.2909    9.1769   -1.6444 C   0  0  0  0  0  0  0  0  0  0  0  0
    3.3417    9.6966   -0.7443 C   0  0  0  0  0  0  0  0  0  0  0  0
    5.5094    8.6607   -1.1953 C   0  0  0  0  0  0  0  0  0  0  0  0
    6.0983    7.5892   -1.8746 C   0  0  0  0  0  0  0  0  0  0  0  0
    5.5312    7.1065   -3.0505 C   0  0  0  0  0  0  0  0  0  0  0  0
    4.4974    7.8181   -3.6569 C   0  0  0  0  0  0  0  0  0  0  0  0
   -2.3283    7.5211    0.8206 O   0  0  0  0  0  0  0  0  0  0  0  0
   -3.5806    7.7613    0.1041 C   0  0  2  0  0  0  0  0  0  0  0  0
   -4.0690    9.2789   -0.0875 C   0  0  2  0  0  0  0  0  0  0  0  0
   -5.4467    9.6402    0.5256 C   0  0  1  0  0  0  0  0  0  0  0  0
   -6.3912    8.4491    0.5604 C   0  0  2  0  0  0  0  0  0  0  0  0
   -5.6777    7.2981    1.2693 C   0  0  2  0  0  0  0  0  0  0  0  0
   -4.5546    6.8136    0.5302 O   0  0  0  0  0  0  0  0  0  0  0  0
   -6.6251    6.1007    1.4096 C   0  0  0  0  0  0  0  0  0  0  0  0
   -5.9489    5.0432    2.0940 O   0  0  0  0  0  0  0  0  0  0  0  0
   -6.7791    8.0788   -0.7684 O   0  0  0  0  0  0  0  0  0  0  0  0
   -5.3022   10.1815    1.8434 O   0  0  0  0  0  0  0  0  0  0  0  0
   -4.1599    9.6294   -1.5388 N   0  0  0  0  0  0  0  0  0  0  0  0
    3.1445    7.1143   -0.2459 H   0  0  0  0  0  0  0  0  0  0  0  0
    4.9543    7.5475    1.4098 H   0  0  0  0  0  0  0  0  0  0  0  0
    4.3438    8.0693    3.7671 H   0  0  0  0  0  0  0  0  0  0  0  0
    2.0496    7.4899    4.4973 H   0  0  0  0  0  0  0  0  0  0  0  0
   -1.6933    7.3545    3.4102 H   0  0  0  0  0  0  0  0  0  0  0  0
   -0.0187    5.3571    3.3560 H   0  0  0  0  0  0  0  0  0  0  0  0
   -1.4979    9.2298    0.3310 H   0  0  0  0  0  0  0  0  0  0  0  0
    0.6560    7.2478   -1.5022 H   0  0  0  0  0  0  0  0  0  0  0  0
    0.2494   10.0998   -0.2591 H   0  0  0  0  0  0  0  0  0  0  0  0
    2.5602    9.5599   -4.5414 H   0  0  0  0  0  0  0  0  0  0  0  0
    3.5899    9.8374    0.2999 H   0  0  0  0  0  0  0  0  0  0  0  0
    5.9139    8.9643   -0.2349 H   0  0  0  0  0  0  0  0  0  0  0  0
    6.9529    7.0785   -1.4377 H   0  0  0  0  0  0  0  0  0  0  0  0
    5.8755    6.1681   -3.4814 H   0  0  0  0  0  0  0  0  0  0  0  0
    4.0453    7.4243   -4.5657 H   0  0  0  0  0  0  0  0  0  0  0  0
   -3.3721    7.3939   -0.9052 H   0  0  0  0  0  0  0  0  0  0  0  0
   -3.3360    9.9705    0.3354 H   0  0  0  0  0  0  0  0  0  0  0  0
   -5.9240   10.4380   -0.0625 H   0  0  0  0  0  0  0  0  0  0  0  0
   -7.3011    8.7066    1.1182 H   0  0  0  0  0  0  0  0  0  0  0  0
   -5.3275    7.5978    2.2638 H   0  0  0  0  0  0  0  0  0  0  0  0
   -6.9216    5.7123    0.4310 H   0  0  0  0  0  0  0  0  0  0  0  0
   -7.5233    6.3614    1.9750 H   0  0  0  0  0  0  0  0  0  0  0  0
   -5.0917    4.9636    1.6290 H   0  0  0  0  0  0  0  0  0  0  0  0
   -7.3944    8.7583   -1.0980 H   0  0  0  0  0  0  0  0  0  0  0  0
   -4.9964   11.1020    1.7408 H   0  0  0  0  0  0  0  0  0  0  0  0
   -4.8917    9.0393   -1.9534 H   0  0  0  0  0  0  0  0  0  0  0  0
   -3.3008    9.3360   -2.0115 H   0  0  0  0  0  0  0  0  0  0  0  0
  1  2  1  0  0  0  0
  1  6  2  0  0  0  0
  1 11  1  0  0  0  0
  2  3  2  0  0  0  0
  3  4  1  0  0  0  0
  3 40  1  0  0  0  0
  4  5  2  0  0  0  0
  4 41  1  0  0  0  0
  5  6  1  0  0  0  0
  5 42  1  0  0  0  0
  6 43  1  0  0  0  0
  7  2  1  6  0  0  0
  7  8  1  0  0  0  0
  7 12  1  0  0  0  0
  7 15  1  0  0  0  0
  8  9  2  0  0  0  0
  8 10  1  0  0  0  0
 10 11  2  0  0  0  0
 10 44  1  0  0  0  0
 11 45  1  0  0  0  0
 12 13  1  0  0  0  0
 12 28  1  0  0  0  0
 12 46  1  1  0  0  0
 13 14  1  0  0  0  0
 14 15  1  0  0  0  0
 14 18  1  0  0  0  0
 14 47  1  1  0  0  0
 15 16  1  0  0  0  0
 15 48  1  1  0  0  0
 16 17  1  0  0  0  0
 16 23  2  0  0  0  0
 17 18  1  0  0  0  0
 17 20  2  0  0  0  0
 18 19  2  0  0  0  0
 20 21  1  0  0  0  0
 20 49  1  0  0  0  0
 21 22  1  0  0  0  0
 21 27  2  0  0  0  0
 22 23  1  0  0  0  0
 22 24  2  0  0  0  0
 23 50  1  0  0  0  0
 24 25  1  0  0  0  0
 24 51  1  0  0  0  0
 25 26  2  0  0  0  0
 25 52  1  0  0  0  0
 26 27  1  0  0  0  0
 26 53  1  0  0  0  0
 27 54  1  0  0  0  0
 28 29  1  0  0  0  0
 29 30  1  0  0  0  0
 29 34  1  0  0  0  0
 29 55  1  6  0  0  0
 30 31  1  0  0  0  0
 30 39  1  0  0  0  0
 30 56  1  1  0  0  0
 31 32  1  0  0  0  0
 31 38  1  0  0  0  0
 31 57  1  6  0  0  0
 32 33  1  0  0  0  0
 32 37  1  0  0  0  0
 32 58  1  1  0  0  0
 33 34  1  0  0  0  0
 33 35  1  0  0  0  0
 33 59  1  1  0  0  0
 35 36  1  0  0  0  0
 35 60  1  0  0  0  0
 35 61  1  0  0  0  0
 36 62  1  0  0  0  0
 37 63  1  0  0  0  0
 38 64  1  0  0  0  0
 39 65  1  0  0  0  0
 39 66  1  0  0  0  0
M  END
$$$$
Target_lig_151
 OpenBabel04172516552D

 66 72  0  0  1  0  0  0  0  0999 V2000
    0.0000    0.0000    0.0000 C   0  0  0  0  0  0  0  0  0  0  0  0
    0.0000    0.0000    0.0000 C   0  0  0  0  0  0  0  0  0  0  0  0
    0.0000    0.0000    0.0000 C   0  0  0  0  0  0  0  0  0  0  0  0
    0.0000    0.0000    0.0000 C   0  0  0  0  0  0  0  0  0  0  0  0
    0.0000    0.0000    0.0000 C   0  0  0  0  0  0  0  0  0  0  0  0
    0.0000    0.0000    0.0000 C   0  0  0  0  0  0  0  0  0  0  0  0
    0.0000    0.0000    0.0000 C   0  0  2  0  0  0  0  0  0  0  0  0
    0.0000    0.0000    0.0000 C   0  0  1  0  0  0  0  0  0  0  0  0
    0.0000    0.0000    0.0000 C   0  0  0  0  0  0  0  0  0  0  0  0
    0.0000    0.0000    0.0000 C   0  0  0  0  0  0  0  0  0  0  0  0
    0.0000    0.0000    0.0000 O   0  0  0  0  0  0  0  0  0  0  0  0
    0.0000    0.0000    0.0000 C   0  0  1  0  0  0  0  0  0  0  0  0
    0.0000    0.0000    0.0000 C   0  0  1  0  0  0  0  0  0  0  0  0
    0.0000    0.0000    0.0000 C   0  0  2  0  0  0  0  0  0  0  0  0
    0.0000    0.0000    0.0000 C   0  0  1  0  0  0  0  0  0  0  0  0
    0.0000    0.0000    0.0000 C   0  0  1  0  0  0  0  0  0  0  0  0
    0.0000    0.0000    0.0000 O   0  0  0  0  0  0  0  0  0  0  0  0
    0.0000    0.0000    0.0000 C   0  0  0  0  0  0  0  0  0  0  0  0
    0.0000    0.0000    0.0000 O   0  0  0  0  0  0  0  0  0  0  0  0
    0.0000    0.0000    0.0000 O   0  0  0  0  0  0  0  0  0  0  0  0
    0.0000    0.0000    0.0000 O   0  0  0  0  0  0  0  0  0  0  0  0
    0.0000    0.0000    0.0000 N   0  0  0  0  0  0  0  0  0  0  0  0
    0.0000    0.0000    0.0000 C   0  0  0  0  0  0  0  0  0  0  0  0
    0.0000    0.0000    0.0000 O   0  0  0  0  0  0  0  0  0  0  0  0
    0.0000    0.0000    0.0000 O   0  0  0  0  0  0  0  0  0  0  0  0
    0.0000    0.0000    0.0000 C   0  0  1  0  0  0  0  0  0  0  0  0
    0.0000    0.0000    0.0000 C   0  0  2  0  0  0  0  0  0  0  0  0
    0.0000    0.0000    0.0000 C   0  0  0  0  0  0  0  0  0  0  0  0
    0.0000    0.0000    0.0000 C   0  0  0  0  0  0  0  0  0  0  0  0
    0.0000    0.0000    0.0000 C   0  0  0  0  0  0  0  0  0  0  0  0
    0.0000    0.0000    0.0000 O   0  0  0  0  0  0  0  0  0  0  0  0
    0.0000    0.0000    0.0000 C   0  0  0  0  0  0  0  0  0  0  0  0
    0.0000    0.0000    0.0000 C   0  0  0  0  0  0  0  0  0  0  0  0
    0.0000    0.0000    0.0000 C   0  0  0  0  0  0  0  0  0  0  0  0
    0.0000    0.0000    0.0000 C   0  0  0  0  0  0  0  0  0  0  0  0
    0.0000    0.0000    0.0000 C   0  0  0  0  0  0  0  0  0  0  0  0
    0.0000    0.0000    0.0000 C   0  0  0  0  0  0  0  0  0  0  0  0
    0.0000    0.0000    0.0000 C   0  0  0  0  0  0  0  0  0  0  0  0
    0.0000    0.0000    0.0000 C   0  0  0  0  0  0  0  0  0  0  0  0
    0.0000    0.0000    0.0000 H   0  0  0  0  0  0  0  0  0  0  0  0
    0.0000    0.0000    0.0000 H   0  0  0  0  0  0  0  0  0  0  0  0
    0.0000    0.0000    0.0000 H   0  0  0  0  0  0  0  0  0  0  0  0
    0.0000    0.0000    0.0000 H   0  0  0  0  0  0  0  0  0  0  0  0
    0.0000    0.0000    0.0000 H   0  0  0  0  0  0  0  0  0  0  0  0
    0.0000    0.0000    0.0000 H   0  0  0  0  0  0  0  0  0  0  0  0
    0.0000    0.0000    0.0000 H   0  0  0  0  0  0  0  0  0  0  0  0
    0.0000    0.0000    0.0000 H   0  0  0  0  0  0  0  0  0  0  0  0
    0.0000    0.0000    0.0000 H   0  0  0  0  0  0  0  0  0  0  0  0
    0.0000    0.0000    0.0000 H   0  0  0  0  0  0  0  0  0  0  0  0
    0.0000    0.0000    0.0000 H   0  0  0  0  0  0  0  0  0  0  0  0
    0.0000    0.0000    0.0000 H   0  0  0  0  0  0  0  0  0  0  0  0
    0.0000    0.0000    0.0000 H   0  0  0  0  0  0  0  0  0  0  0  0
    0.0000    0.0000    0.0000 H   0  0  0  0  0  0  0  0  0  0  0  0
    0.0000    0.0000    0.0000 H   0  0  0  0  0  0  0  0  0  0  0  0
    0.0000    0.0000    0.0000 H   0  0  0  0  0  0  0  0  0  0  0  0
    0.0000    0.0000    0.0000 H   0  0  0  0  0  0  0  0  0  0  0  0
    0.0000    0.0000    0.0000 H   0  0  0  0  0  0  0  0  0  0  0  0
    0.0000    0.0000    0.0000 H   0  0  0  0  0  0  0  0  0  0  0  0
    0.0000    0.0000    0.0000 H   0  0  0  0  0  0  0  0  0  0  0  0
    0.0000    0.0000    0.0000 H   0  0  0  0  0  0  0  0  0  0  0  0
    0.0000    0.0000    0.0000 H   0  0  0  0  0  0  0  0  0  0  0  0
    0.0000    0.0000    0.0000 H   0  0  0  0  0  0  0  0  0  0  0  0
    0.0000    0.0000    0.0000 H   0  0  0  0  0  0  0  0  0  0  0  0
    0.0000    0.0000    0.0000 H   0  0  0  0  0  0  0  0  0  0  0  0
    0.0000    0.0000    0.0000 H   0  0  0  0  0  0  0  0  0  0  0  0
    0.0000    0.0000    0.0000 H   0  0  0  0  0  0  0  0  0  0  0  0
  1  6  2  0  0  0  0
  1 10  1  1  0  0  0
  1  2  1  0  0  0  0
  2  3  2  0  0  0  0
  2  7  1  0  0  0  0
  3  4  1  0  0  0  0
  3 40  1  0  0  0  0
  4  5  2  0  0  0  0
  4 41  1  0  0  0  0
  5  6  1  0  0  0  0
  5 42  1  0  0  0  0
  6 43  1  0  0  0  0
  7 27  1  0  0  0  0
  7  8  1  0  0  0  0
  7 23  1  0  0  0  0
  8  9  1  1  0  0  0
  8 11  1  0  0  0  0
  8 44  1  0  0  0  0
  9 10  2  0  0  0  0
  9 45  1  6  0  0  0
 10 46  1  6  0  0  0
 11 12  1  0  0  0  0
 12 13  1  0  0  0  0
 12 17  1  0  0  0  0
 12 47  1  0  0  0  0
 13 14  1  0  0  0  0
 13 22  1  0  0  0  0
 13 48  1  0  0  0  0
 14 15  1  0  0  0  0
 14 21  1  0  0  0  0
 14 49  1  0  0  0  0
 15 16  1  0  0  0  0
 15 20  1  0  0  0  0
 15 50  1  0  0  0  0
 16 17  1  0  0  0  0
 16 18  1  0  0  0  0
 16 51  1  0  0  0  0
 18 19  1  0  0  0  0
 18 52  1  0  0  0  0
 18 53  1  0  0  0  0
 19 54  1  0  0  0  0
 20 55  1  0  0  0  0
 21 56  1  0  0  0  0
 22 57  1  0  0  0  0
 22 58  1  0  0  0  0
 23 24  2  0  0  0  0
 23 25  1  0  0  0  0
 25 26  1  0  0  0  0
 26 27  1  0  0  0  0
 26 30  1  0  0  0  0
 26 59  1  0  0  0  0
 27 28  1  0  0  0  0
 27 60  1  0  0  0  0
 28 35  2  0  0  0  0
 28 29  1  0  0  0  0
 29 30  1  0  0  0  0
 29 32  2  0  0  0  0
 30 31  2  0  0  0  0
 32 33  1  0  0  0  0
 32 61  1  0  0  0  0
 33 39  2  0  0  0  0
 33 34  1  0  0  0  0
 34 35  1  0  0  0  0
 34 36  2  0  0  0  0
 35 62  1  0  0  0  0
 36 37  1  0  0  0  0
 36 63  1  0  0  0  0
 37 38  2  0  0  0  0
 37 64  1  0  0  0  0
 38 39  1  0  0  0  0
 38 65  1  0  0  0  0
 39 66  1  0  0  0  0
M  END
$$$$
Target_lig_152
 OpenBabel04172516553D

 73 79  0  0  1  0  0  0  0  0999 V2000
    4.9105    3.0925    1.1913 C   0  0  0  0  0  0  0  0  0  0  0  0
    3.5613    2.6175    1.0901 C   0  0  0  0  0  0  0  0  0  0  0  0
    3.3227    1.2382    0.8804 C   0  0  0  0  0  0  0  0  0  0  0  0
    4.4165    0.3650    0.7570 C   0  0  0  0  0  0  0  0  0  0  0  0
    5.7264    0.8614    0.7951 C   0  0  0  0  0  0  0  0  0  0  0  0
    5.9760    2.2102    1.0249 C   0  0  0  0  0  0  0  0  0  0  0  0
    4.3301   -0.9644    0.4284 O   0  0  0  0  0  0  0  0  0  0  0  0
    3.3499   -1.7119    1.1371 C   0  0  0  0  0  0  0  0  0  0  0  0
    2.5256    3.7694    0.8695 C   0  0  1  0  0  0  0  0  0  0  0  0
    2.8982    4.8345    1.9018 C   0  0  0  0  0  0  0  0  0  0  0  0
    2.2834    5.0776    2.9358 O   0  0  0  0  0  0  0  0  0  0  0  0
    4.2407    5.4173    1.7151 C   0  0  0  0  0  0  0  0  0  0  0  0
    5.1834    4.5491    1.3279 C   0  0  0  0  0  0  0  0  0  0  0  0
    2.7895    4.0248   -0.6251 C   0  0  0  0  0  0  0  0  0  0  0  0
    1.7635    3.6946   -1.4018 C   0  0  0  0  0  0  0  0  0  0  0  0
    0.5498    3.5938   -0.5690 C   0  0  2  0  0  0  0  0  0  0  0  0
    0.9998    3.5504    0.9271 C   0  0  2  0  0  0  0  0  0  0  0  0
   -0.2830    4.3140    1.3068 C   0  0  0  0  0  0  0  0  0  0  0  0
   -1.3396    3.7044    0.5382 C   0  0  0  0  0  0  0  0  0  0  0  0
   -0.6879    2.6865   -0.4184 C   0  0  1  0  0  0  0  0  0  0  0  0
   -1.4048    2.3907   -1.5852 O   0  0  0  0  0  0  0  0  0  0  0  0
   -0.5048    1.8873   -2.5646 C   0  0  2  0  0  0  0  0  0  0  0  0
   -1.2192    1.3963   -3.8171 C   0  0  2  0  0  0  0  0  0  0  0  0
   -0.0827    1.4402   -4.8525 C   0  0  1  0  0  0  0  0  0  0  0  0
    1.0625    0.4778   -4.4543 C   0  0  1  0  0  0  0  0  0  0  0  0
    1.3674    0.4181   -2.9268 C   0  0  1  0  0  0  0  0  0  0  0  0
    0.3001    0.8303   -2.0596 O   0  0  0  0  0  0  0  0  0  0  0  0
    1.7084   -0.9912   -2.4485 C   0  0  0  0  0  0  0  0  0  0  0  0
    0.7337   -0.8179   -4.9751 O   0  0  0  0  0  0  0  0  0  0  0  0
   -0.5650    1.0859   -6.1615 O   0  0  0  0  0  0  0  0  0  0  0  0
   -2.4490    2.1198   -4.1752 N   0  0  0  0  0  0  0  0  0  0  0  0
   -2.3378    3.5578   -4.2883 C   0  0  0  0  0  0  0  0  0  0  0  0
   -2.5137    4.3768    0.2339 C   0  0  0  0  0  0  0  0  0  0  0  0
   -2.5938    5.7239    0.5745 C   0  0  0  0  0  0  0  0  0  0  0  0
   -1.5931    6.3504    1.3810 C   0  0  0  0  0  0  0  0  0  0  0  0
   -0.4473    5.6125    1.7802 C   0  0  0  0  0  0  0  0  0  0  0  0
   -1.7121    7.7378    1.6307 C   0  0  0  0  0  0  0  0  0  0  0  0
   -2.7310    8.4934    1.0723 C   0  0  0  0  0  0  0  0  0  0  0  0
   -3.6550    7.8892    0.2150 C   0  0  0  0  0  0  0  0  0  0  0  0
   -3.5967    6.5148   -0.0078 C   0  0  0  0  0  0  0  0  0  0  0  0
    2.3158    0.8662    0.7053 H   0  0  0  0  0  0  0  0  0  0  0  0
    6.5610    0.1814    0.6327 H   0  0  0  0  0  0  0  0  0  0  0  0
    6.9997    2.5703    1.0183 H   0  0  0  0  0  0  0  0  0  0  0  0
    3.4566   -1.5912    2.2190 H   0  0  0  0  0  0  0  0  0  0  0  0
    3.5118   -2.7705    0.9018 H   0  0  0  0  0  0  0  0  0  0  0  0
    2.3396   -1.4548    0.8110 H   0  0  0  0  0  0  0  0  0  0  0  0
    4.3528    6.4710    1.8864 H   0  0  0  0  0  0  0  0  0  0  0  0
    6.1771    4.9104    1.0865 H   0  0  0  0  0  0  0  0  0  0  0  0
    3.7661    4.2219   -1.0563 H   0  0  0  0  0  0  0  0  0  0  0  0
    1.7997    3.8065   -2.4778 H   0  0  0  0  0  0  0  0  0  0  0  0
    0.1520    4.5911   -0.8897 H   0  0  0  0  0  0  0  0  0  0  0  0
    0.8788    2.5642    1.3954 H   0  0  0  0  0  0  0  0  0  0  0  0
   -0.4934    1.7510    0.1205 H   0  0  0  0  0  0  0  0  0  0  0  0
    0.1142    2.7293   -2.8635 H   0  0  0  0  0  0  0  0  0  0  0  0
   -1.5176    0.3502   -3.6664 H   0  0  0  0  0  0  0  0  0  0  0  0
    0.3281    2.4538   -4.9387 H   0  0  0  0  0  0  0  0  0  0  0  0
    1.9817    0.7730   -4.9775 H   0  0  0  0  0  0  0  0  0  0  0  0
    2.2200    1.0758   -2.7134 H   0  0  0  0  0  0  0  0  0  0  0  0
    0.8354   -1.6486   -2.5488 H   0  0  0  0  0  0  0  0  0  0  0  0
    1.9512   -0.9873   -1.3840 H   0  0  0  0  0  0  0  0  0  0  0  0
    2.5478   -1.4291   -2.9989 H   0  0  0  0  0  0  0  0  0  0  0  0
    0.2957   -0.6333   -5.8329 H   0  0  0  0  0  0  0  0  0  0  0  0
   -1.3564    1.6393   -6.2978 H   0  0  0  0  0  0  0  0  0  0  0  0
   -2.9516    1.6783   -4.9369 H   0  0  0  0  0  0  0  0  0  0  0  0
   -1.9341    4.0298   -3.3857 H   0  0  0  0  0  0  0  0  0  0  0  0
   -1.7157    3.8438   -5.1387 H   0  0  0  0  0  0  0  0  0  0  0  0
   -3.3365    3.9806   -4.4335 H   0  0  0  0  0  0  0  0  0  0  0  0
   -3.2237    3.9330   -0.4595 H   0  0  0  0  0  0  0  0  0  0  0  0
    0.3617    6.1408    2.2766 H   0  0  0  0  0  0  0  0  0  0  0  0
   -0.9765    8.2360    2.2634 H   0  0  0  0  0  0  0  0  0  0  0  0
   -2.7797    9.5597    1.2488 H   0  0  0  0  0  0  0  0  0  0  0  0
   -4.4037    8.4891   -0.2968 H   0  0  0  0  0  0  0  0  0  0  0  0
   -4.3045    6.0688   -0.7042 H   0  0  0  0  0  0  0  0  0  0  0  0
  1  2  1  0  0  0  0
  1  6  2  0  0  0  0
  1 13  1  0  0  0  0
  2  3  2  0  0  0  0
  3  4  1  0  0  0  0
  3 41  1  0  0  0  0
  4  5  2  0  0  0  0
  4  7  1  0  0  0  0
  5  6  1  0  0  0  0
  5 42  1  0  0  0  0
  6 43  1  0  0  0  0
  7  8  1  0  0  0  0
  8 44  1  0  0  0  0
  8 45  1  0  0  0  0
  8 46  1  0  0  0  0
  9  2  1  1  0  0  0
  9 10  1  0  0  0  0
  9 14  1  0  0  0  0
  9 17  1  0  0  0  0
 10 11  2  0  0  0  0
 10 12  1  0  0  0  0
 12 13  2  0  0  0  0
 12 47  1  0  0  0  0
 13 48  1  0  0  0  0
 14 15  2  0  0  0  0
 14 49  1  0  0  0  0
 15 16  1  0  0  0  0
 15 50  1  0  0  0  0
 16 17  1  0  0  0  0
 16 20  1  0  0  0  0
 16 51  1  6  0  0  0
 17 18  1  0  0  0  0
 17 52  1  1  0  0  0
 18 19  1  0  0  0  0
 18 36  2  0  0  0  0
 19 20  1  0  0  0  0
 19 33  2  0  0  0  0
 20 21  1  0  0  0  0
 20 53  1  1  0  0  0
 22 23  1  0  0  0  0
 22 27  1  0  0  0  0
 22 21  1  0  0  0  0
 22 54  1  6  0  0  0
 23 24  1  0  0  0  0
 23 31  1  0  0  0  0
 23 55  1  1  0  0  0
 24 25  1  0  0  0  0
 24 30  1  0  0  0  0
 24 56  1  6  0  0  0
 25 26  1  0  0  0  0
 25 29  1  0  0  0  0
 25 57  1  6  0  0  0
 26 27  1  0  0  0  0
 26 28  1  0  0  0  0
 26 58  1  1  0  0  0
 28 59  1  0  0  0  0
 28 60  1  0  0  0  0
 28 61  1  0  0  0  0
 29 62  1  0  0  0  0
 30 63  1  0  0  0  0
 31 32  1  0  0  0  0
 31 64  1  0  0  0  0
 32 65  1  0  0  0  0
 32 66  1  0  0  0  0
 32 67  1  0  0  0  0
 33 34  1  0  0  0  0
 33 68  1  0  0  0  0
 34 35  1  0  0  0  0
 34 40  2  0  0  0  0
 35 36  1  0  0  0  0
 35 37  2  0  0  0  0
 36 69  1  0  0  0  0
 37 38  1  0  0  0  0
 37 70  1  0  0  0  0
 38 39  2  0  0  0  0
 38 71  1  0  0  0  0
 39 40  1  0  0  0  0
 39 72  1  0  0  0  0
 40 73  1  0  0  0  0
M  END
$$$$
Target_lig_153
 OpenBabel04172516553D

 73 79  0  0  1  0  0  0  0  0999 V2000
    4.2974    4.2581   -1.0333 C   0  0  0  0  0  0  0  0  0  0  0  0
    3.1535    3.5089   -1.1707 C   0  0  0  0  0  0  0  0  0  0  0  0
    3.1810    2.4780   -2.1286 C   0  0  0  0  0  0  0  0  0  0  0  0
    4.3568    1.9411   -2.5864 C   0  0  0  0  0  0  0  0  0  0  0  0
    5.5273    2.4118   -2.0035 C   0  0  0  0  0  0  0  0  0  0  0  0
    5.5113    3.6159   -1.2663 C   0  0  0  0  0  0  0  0  0  0  0  0
    4.4040    0.9964   -3.5705 O   0  0  0  0  0  0  0  0  0  0  0  0
    3.3431    1.1034   -4.5406 C   0  0  0  0  0  0  0  0  0  0  0  0
    1.8050    4.0794   -0.7669 C   0  0  1  0  0  0  0  0  0  0  0  0
    1.7462    5.1754   -1.9341 C   0  0  0  0  0  0  0  0  0  0  0  0
    0.8447    5.3168   -2.7482 O   0  0  0  0  0  0  0  0  0  0  0  0
    2.9439    6.1404   -1.8193 C   0  0  0  0  0  0  0  0  0  0  0  0
    4.0826    5.7159   -1.2093 C   0  0  0  0  0  0  0  0  0  0  0  0
    1.0666    2.7827   -0.3908 C   0  0  0  0  0  0  0  0  0  0  0  0
    0.6558    2.7538    0.8695 C   0  0  0  0  0  0  0  0  0  0  0  0
    0.5895    4.1168    1.3700 C   0  0  1  0  0  0  0  0  0  0  0  0
    1.6582    5.0102    0.6218 C   0  0  1  0  0  0  0  0  0  0  0  0
    1.0781    6.2452    1.3766 C   0  0  0  0  0  0  0  0  0  0  0  0
   -0.3026    6.0726    1.6467 C   0  0  0  0  0  0  0  0  0  0  0  0
   -0.7207    4.8149    0.9566 C   0  0  2  0  0  0  0  0  0  0  0  0
   -1.8749    4.1440    1.3461 O   0  0  0  0  0  0  0  0  0  0  0  0
   -3.0004    4.6472    0.6129 C   0  0  2  0  0  0  0  0  0  0  0  0
   -4.1597    3.6825    0.8781 C   0  0  2  0  0  0  0  0  0  0  0  0
   -5.4263    4.4344    0.4653 C   0  0  1  0  0  0  0  0  0  0  0  0
   -5.3415    4.8915   -1.0093 C   0  0  1  0  0  0  0  0  0  0  0  0
   -3.9233    5.3438   -1.4739 C   0  0  1  0  0  0  0  0  0  0  0  0
   -2.8356    4.6787   -0.8023 O   0  0  0  0  0  0  0  0  0  0  0  0
   -3.7043    5.1031   -2.9696 C   0  0  0  0  0  0  0  0  0  0  0  0
   -5.8346    3.8186   -1.8264 O   0  0  0  0  0  0  0  0  0  0  0  0
   -6.5695    3.5780    0.6331 O   0  0  0  0  0  0  0  0  0  0  0  0
   -4.1810    3.0597    2.2291 N   0  0  0  0  0  0  0  0  0  0  0  0
   -4.2002    4.0318    3.3176 C   0  0  0  0  0  0  0  0  0  0  0  0
   -0.9406    6.7840    2.6443 C   0  0  0  0  0  0  0  0  0  0  0  0
   -0.1547    7.6944    3.3626 C   0  0  0  0  0  0  0  0  0  0  0  0
    1.1602    8.0225    2.9354 C   0  0  0  0  0  0  0  0  0  0  0  0
    1.7738    7.3118    1.8975 C   0  0  0  0  0  0  0  0  0  0  0  0
    1.8866    8.9600    3.6533 C   0  0  0  0  0  0  0  0  0  0  0  0
    1.3940    9.4305    4.8713 C   0  0  0  0  0  0  0  0  0  0  0  0
    0.1545    9.0100    5.3451 C   0  0  0  0  0  0  0  0  0  0  0  0
   -0.6463    8.1909    4.5644 C   0  0  0  0  0  0  0  0  0  0  0  0
    2.2303    2.1560   -2.5620 H   0  0  0  0  0  0  0  0  0  0  0  0
    6.4648    1.9182   -2.2281 H   0  0  0  0  0  0  0  0  0  0  0  0
    6.4517    4.0812   -0.9913 H   0  0  0  0  0  0  0  0  0  0  0  0
    3.5788    0.4486   -5.3809 H   0  0  0  0  0  0  0  0  0  0  0  0
    3.2529    2.1276   -4.9251 H   0  0  0  0  0  0  0  0  0  0  0  0
    2.3828    0.7669   -4.1295 H   0  0  0  0  0  0  0  0  0  0  0  0
    2.7540    7.1687   -2.0982 H   0  0  0  0  0  0  0  0  0  0  0  0
    4.9099    6.3848   -0.9985 H   0  0  0  0  0  0  0  0  0  0  0  0
    1.1775    1.8143   -0.8638 H   0  0  0  0  0  0  0  0  0  0  0  0
    0.3823    1.8863    1.4557 H   0  0  0  0  0  0  0  0  0  0  0  0
    0.7703    4.0876    2.4618 H   0  0  0  0  0  0  0  0  0  0  0  0
    1.2532    5.7225   -0.1073 H   0  0  0  0  0  0  0  0  0  0  0  0
   -0.7237    4.9722   -0.1229 H   0  0  0  0  0  0  0  0  0  0  0  0
   -3.2065    5.6594    0.9809 H   0  0  0  0  0  0  0  0  0  0  0  0
   -4.0550    2.8243    0.1965 H   0  0  0  0  0  0  0  0  0  0  0  0
   -5.5665    5.3090    1.1113 H   0  0  0  0  0  0  0  0  0  0  0  0
   -6.0414    5.7217   -1.1679 H   0  0  0  0  0  0  0  0  0  0  0  0
   -3.8112    6.4168   -1.2700 H   0  0  0  0  0  0  0  0  0  0  0  0
   -4.5095    5.5296   -3.5756 H   0  0  0  0  0  0  0  0  0  0  0  0
   -3.6346    4.0288   -3.1815 H   0  0  0  0  0  0  0  0  0  0  0  0
   -2.7532    5.5360   -3.2983 H   0  0  0  0  0  0  0  0  0  0  0  0
   -6.5690    3.4309   -1.3041 H   0  0  0  0  0  0  0  0  0  0  0  0
   -6.2899    2.9186    1.3052 H   0  0  0  0  0  0  0  0  0  0  0  0
   -3.2650    2.5908    2.2897 H   0  0  0  0  0  0  0  0  0  0  0  0
   -5.2085    4.4194    3.4700 H   0  0  0  0  0  0  0  0  0  0  0  0
   -3.5191    4.8728    3.1627 H   0  0  0  0  0  0  0  0  0  0  0  0
   -3.8785    3.5392    4.2397 H   0  0  0  0  0  0  0  0  0  0  0  0
   -1.9469    6.5199    2.9489 H   0  0  0  0  0  0  0  0  0  0  0  0
    2.8011    7.4913    1.6189 H   0  0  0  0  0  0  0  0  0  0  0  0
    2.8709    9.2662    3.3211 H   0  0  0  0  0  0  0  0  0  0  0  0
    2.0059   10.0931    5.4727 H   0  0  0  0  0  0  0  0  0  0  0  0
   -0.1811    9.3017    6.3392 H   0  0  0  0  0  0  0  0  0  0  0  0
   -1.5994    7.8342    4.9681 H   0  0  0  0  0  0  0  0  0  0  0  0
  1  2  1  0  0  0  0
  1  6  2  0  0  0  0
  1 13  1  0  0  0  0
  2  3  2  0  0  0  0
  3  4  1  0  0  0  0
  3 41  1  0  0  0  0
  4  5  2  0  0  0  0
  4  7  1  0  0  0  0
  5  6  1  0  0  0  0
  5 42  1  0  0  0  0
  6 43  1  0  0  0  0
  7  8  1  0  0  0  0
  8 44  1  0  0  0  0
  8 45  1  0  0  0  0
  8 46  1  0  0  0  0
  9  2  1  1  0  0  0
  9 10  1  0  0  0  0
  9 14  1  0  0  0  0
  9 17  1  0  0  0  0
 10 12  1  0  0  0  0
 10 11  2  0  0  0  0
 12 13  2  0  0  0  0
 12 47  1  0  0  0  0
 13 48  1  0  0  0  0
 14 15  2  0  0  0  0
 14 49  1  0  0  0  0
 15 16  1  0  0  0  0
 15 50  1  0  0  0  0
 16 17  1  0  0  0  0
 16 20  1  0  0  0  0
 16 51  1  1  0  0  0
 17 18  1  0  0  0  0
 17 52  1  6  0  0  0
 18 19  1  0  0  0  0
 18 36  2  0  0  0  0
 19 20  1  0  0  0  0
 19 33  2  0  0  0  0
 20 21  1  0  0  0  0
 20 53  1  6  0  0  0
 22 23  1  0  0  0  0
 22 27  1  0  0  0  0
 22 21  1  0  0  0  0
 22 54  1  1  0  0  0
 23 24  1  0  0  0  0
 23 31  1  0  0  0  0
 23 55  1  6  0  0  0
 24 25  1  0  0  0  0
 24 30  1  0  0  0  0
 24 56  1  1  0  0  0
 25 26  1  0  0  0  0
 25 29  1  0  0  0  0
 25 57  1  6  0  0  0
 26 27  1  0  0  0  0
 26 28  1  0  0  0  0
 26 58  1  1  0  0  0
 28 59  1  0  0  0  0
 28 60  1  0  0  0  0
 28 61  1  0  0  0  0
 29 62  1  0  0  0  0
 30 63  1  0  0  0  0
 31 32  1  0  0  0  0
 31 64  1  0  0  0  0
 32 65  1  0  0  0  0
 32 66  1  0  0  0  0
 32 67  1  0  0  0  0
 33 34  1  0  0  0  0
 33 68  1  0  0  0  0
 34 35  1  0  0  0  0
 34 40  2  0  0  0  0
 35 36  1  0  0  0  0
 35 37  2  0  0  0  0
 36 69  1  0  0  0  0
 37 38  1  0  0  0  0
 37 70  1  0  0  0  0
 38 39  2  0  0  0  0
 38 71  1  0  0  0  0
 39 40  1  0  0  0  0
 39 72  1  0  0  0  0
 40 73  1  0  0  0  0
M  END
$$$$
Target_lig_10
 OpenBabel04172516553D

 68 70  0  0  1  0  0  0  0  0999 V2000
    6.8979   -2.7468    0.7426 C   0  0  0  0  0  0  0  0  0  0  0  0
    6.2788   -3.0675   -0.6283 C   0  0  3  0  0  0  0  0  0  0  0  0
    6.7570   -2.0586   -1.6866 C   0  0  0  0  0  0  0  0  0  0  0  0
    6.3258   -0.7295   -1.4108 O   0  0  0  0  0  0  0  0  0  0  0  0
    4.9101   -0.5838   -1.4562 C   0  0  3  0  0  0  0  0  0  0  0  0
    4.2071   -1.5727   -0.4829 C   0  0  3  0  0  0  0  0  0  0  0  0
    4.7195   -3.0363   -0.6129 C   0  0  3  0  0  0  0  0  0  0  0  0
    4.0719   -3.8530    0.4567 N   0  0  0  0  0  0  0  0  0  0  0  0
    4.3942   -5.2727    0.3883 C   0  0  0  0  0  0  0  0  0  0  0  0
    2.7785   -1.5213   -0.6439 O   0  0  0  0  0  0  0  0  0  0  0  0
    4.3745   -0.6673   -2.7982 O   0  0  0  0  0  0  0  0  0  0  0  0
    5.0343    0.2319   -3.7425 C   0  0  3  0  0  0  0  0  0  0  0  0
    4.7734    1.7398   -3.4606 C   0  0  3  0  0  0  0  0  0  0  0  0
    3.3467    2.1651   -3.8356 C   0  0  0  0  0  0  0  0  0  0  0  0
    2.8489    1.7230   -5.2168 C   0  0  3  0  0  0  0  0  0  0  0  0
    3.1109    0.2078   -5.4461 C   0  0  3  0  0  0  0  0  0  0  0  0
    4.6000   -0.1380   -5.1858 C   0  0  3  0  0  0  0  0  0  0  0  0
    4.8667   -1.5332   -5.4022 O   0  0  0  0  0  0  0  0  0  0  0  0
    2.7389   -0.2264   -6.7704 O   0  0  0  0  0  0  0  0  0  0  0  0
    1.3482   -0.0701   -7.1384 C   0  0  3  0  0  0  0  0  0  0  0  0
    0.4232   -0.9444   -6.2205 C   0  0  3  0  0  0  0  0  0  0  0  0
   -0.5229   -1.9042   -6.9405 C   0  0  0  0  0  0  0  0  0  0  0  0
   -0.6182   -1.7118   -8.4021 C   0  0  0  0  0  0  0  0  0  0  0  0
    0.1889   -0.9172   -9.1140 C   0  0  0  0  0  0  0  0  0  0  0  0
    1.2396   -0.2341   -8.5585 O   0  0  0  0  0  0  0  0  0  0  0  0
    0.0683   -0.7139  -10.6117 C   0  0  0  0  0  0  0  0  0  0  0  0
   -0.8946   -1.5888  -11.2836 N   0  0  0  0  0  0  0  0  0  0  0  0
   -0.3755   -0.1315   -5.2565 N   0  0  0  0  0  0  0  0  0  0  0  0
    3.3264    2.5763   -6.3094 N   0  0  0  0  0  0  0  0  0  0  0  0
    5.7569    2.6188   -4.1052 N   0  0  0  0  0  0  0  0  0  0  0  0
    6.7336   -4.3657   -1.0492 O   0  0  0  0  0  0  0  0  0  0  0  0
    6.6394   -1.7443    1.0960 H   0  0  0  0  0  0  0  0  0  0  0  0
    7.9912   -2.8159    0.6981 H   0  0  0  0  0  0  0  0  0  0  0  0
    6.5856   -3.4692    1.5042 H   0  0  0  0  0  0  0  0  0  0  0  0
    6.4283   -2.3626   -2.6889 H   0  0  0  0  0  0  0  0  0  0  0  0
    7.8525   -2.0525   -1.7256 H   0  0  0  0  0  0  0  0  0  0  0  0
    4.6684    0.4123   -1.0762 H   0  0  0  0  0  0  0  0  0  0  0  0
    4.4211   -1.2353    0.5400 H   0  0  0  0  0  0  0  0  0  0  0  0
    4.3493   -3.4371   -1.5662 H   0  0  0  0  0  0  0  0  0  0  0  0
    3.0599   -3.7269    0.3713 H   0  0  0  0  0  0  0  0  0  0  0  0
    5.4051   -5.4715    0.7578 H   0  0  0  0  0  0  0  0  0  0  0  0
    4.2866   -5.6765   -0.6230 H   0  0  0  0  0  0  0  0  0  0  0  0
    3.7159   -5.8314    1.0418 H   0  0  0  0  0  0  0  0  0  0  0  0
    2.6092   -1.6207   -1.5981 H   0  0  0  0  0  0  0  0  0  0  0  0
    6.1090    0.0245   -3.6744 H   0  0  0  0  0  0  0  0  0  0  0  0
    4.8741    1.9400   -2.3910 H   0  0  0  0  0  0  0  0  0  0  0  0
    3.2398    3.2543   -3.7361 H   0  0  0  0  0  0  0  0  0  0  0  0
    2.6606    1.7431   -3.0883 H   0  0  0  0  0  0  0  0  0  0  0  0
    1.7673    1.8852   -5.2063 H   0  0  0  0  0  0  0  0  0  0  0  0
    2.5250   -0.3696   -4.7251 H   0  0  0  0  0  0  0  0  0  0  0  0
    5.2282    0.3912   -5.9121 H   0  0  0  0  0  0  0  0  0  0  0  0
    4.3123   -2.0221   -4.7632 H   0  0  0  0  0  0  0  0  0  0  0  0
    1.0839    0.9825   -6.9937 H   0  0  0  0  0  0  0  0  0  0  0  0
    1.0552   -1.5752   -5.5862 H   0  0  0  0  0  0  0  0  0  0  0  0
   -1.5377   -1.8349   -6.5280 H   0  0  0  0  0  0  0  0  0  0  0  0
   -0.2004   -2.9348   -6.7474 H   0  0  0  0  0  0  0  0  0  0  0  0
   -1.4012   -2.2752   -8.9037 H   0  0  0  0  0  0  0  0  0  0  0  0
    1.0493   -0.8553  -11.0794 H   0  0  0  0  0  0  0  0  0  0  0  0
   -0.2323    0.3247  -10.7931 H   0  0  0  0  0  0  0  0  0  0  0  0
   -0.5171   -2.5354  -11.2788 H   0  0  0  0  0  0  0  0  0  0  0  0
   -0.9560   -1.3180  -12.2632 H   0  0  0  0  0  0  0  0  0  0  0  0
   -0.9655    0.5143   -5.7863 H   0  0  0  0  0  0  0  0  0  0  0  0
    0.2366    0.4507   -4.6916 H   0  0  0  0  0  0  0  0  0  0  0  0
    4.2666    2.3415   -6.6124 H   0  0  0  0  0  0  0  0  0  0  0  0
    3.3193    3.5592   -6.0410 H   0  0  0  0  0  0  0  0  0  0  0  0
    5.7634    2.5022   -5.1155 H   0  0  0  0  0  0  0  0  0  0  0  0
    6.6959    2.3723   -3.7856 H   0  0  0  0  0  0  0  0  0  0  0  0
    7.6858   -4.4304   -0.8602 H   0  0  0  0  0  0  0  0  0  0  0  0
  1  2  1  0  0  0  0
  1 32  1  0  0  0  0
  1 33  1  0  0  0  0
  1 34  1  0  0  0  0
  2  3  1  0  0  0  0
  2  7  1  0  0  0  0
  2 31  1  0  0  0  0
  3  4  1  0  0  0  0
  3 35  1  0  0  0  0
  3 36  1  0  0  0  0
  4  5  1  0  0  0  0
  5  6  1  0  0  0  0
  5 11  1  0  0  0  0
  5 37  1  0  0  0  0
  6  7  1  0  0  0  0
  6 10  1  0  0  0  0
  6 38  1  0  0  0  0
  7  8  1  0  0  0  0
  7 39  1  0  0  0  0
  8  9  1  0  0  0  0
  8 40  1  0  0  0  0
  9 41  1  0  0  0  0
  9 42  1  0  0  0  0
  9 43  1  0  0  0  0
 10 44  1  0  0  0  0
 11 12  1  0  0  0  0
 12 13  1  0  0  0  0
 12 17  1  0  0  0  0
 12 45  1  0  0  0  0
 13 14  1  0  0  0  0
 13 30  1  0  0  0  0
 13 46  1  0  0  0  0
 14 15  1  0  0  0  0
 14 47  1  0  0  0  0
 14 48  1  0  0  0  0
 15 16  1  0  0  0  0
 15 29  1  0  0  0  0
 15 49  1  0  0  0  0
 16 17  1  0  0  0  0
 16 19  1  0  0  0  0
 16 50  1  0  0  0  0
 17 18  1  0  0  0  0
 17 51  1  0  0  0  0
 18 52  1  0  0  0  0
 19 20  1  0  0  0  0
 20 21  1  0  0  0  0
 20 25  1  0  0  0  0
 20 53  1  0  0  0  0
 21 22  1  0  0  0  0
 21 28  1  0  0  0  0
 21 54  1  0  0  0  0
 22 23  1  0  0  0  0
 22 55  1  0  0  0  0
 22 56  1  0  0  0  0
 23 24  2  0  0  0  0
 23 57  1  0  0  0  0
 24 25  1  0  0  0  0
 24 26  1  0  0  0  0
 26 27  1  0  0  0  0
 26 58  1  0  0  0  0
 26 59  1  0  0  0  0
 27 60  1  0  0  0  0
 27 61  1  0  0  0  0
 28 62  1  0  0  0  0
 28 63  1  0  0  0  0
 29 64  1  0  0  0  0
 29 65  1  0  0  0  0
 30 66  1  0  0  0  0
 30 67  1  0  0  0  0
 31 68  1  0  0  0  0
M  END
$$$$
Target_lig_175
 OpenBabel04172516553D

 83 85  0  0  1  0  0  0  0  0999 V2000
    0.5482    1.5875    0.3937 C   0  0  0  0  0  0  0  0  0  0  0  0
    1.4583    0.5485    1.0414 C   0  0  3  0  0  0  0  0  0  0  0  0
    1.0332   -0.8352    0.5105 C   0  0  3  0  0  0  0  0  0  0  0  0
   -0.4301   -1.1584    0.8855 C   0  0  3  0  0  0  0  0  0  0  0  0
   -1.3763   -0.1460    0.1746 C   0  0  3  0  0  0  0  0  0  0  0  0
   -0.9626    1.3200    0.5792 C   0  0  3  0  0  0  0  0  0  0  0  0
   -1.6864    2.3799   -0.1401 N   0  0  0  0  0  0  0  0  0  0  0  0
   -1.7247    3.6480    0.4227 C   0  0  0  0  0  0  0  0  0  0  0  0
   -1.3245    3.8904    1.5639 O   0  0  0  0  0  0  0  0  0  0  0  0
   -2.3095    4.7749   -0.4511 C   0  0  3  0  0  0  0  0  0  0  0  0
   -3.7366    4.4242   -0.8508 C   0  0  0  0  0  0  0  0  0  0  0  0
   -4.4167    5.5309   -1.6449 C   0  0  0  0  0  0  0  0  0  0  0  0
   -5.7589    5.0892   -2.0084 N   0  0  0  0  0  0  0  0  0  0  0  0
   -2.2963    6.0096    0.2620 O   0  0  0  0  0  0  0  0  0  0  0  0
   -2.7554   -0.4198    0.5538 O   0  0  0  0  0  0  0  0  0  0  0  0
   -3.3502   -1.5222   -0.1589 C   0  0  3  0  0  0  0  0  0  0  0  0
   -4.8997   -1.5442   -0.0201 C   0  0  3  0  0  0  0  0  0  0  0  0
   -5.3043   -1.9850    1.4060 C   0  0  3  0  0  0  0  0  0  0  0  0
   -4.6811   -3.3658    1.7197 C   0  0  3  0  0  0  0  0  0  0  0  0
   -3.1580   -3.2654    1.5177 C   0  0  3  0  0  0  0  0  0  0  0  0
   -2.8204   -2.8000    0.1925 O   0  0  0  0  0  0  0  0  0  0  0  0
   -2.4555   -4.6153    1.7584 C   0  0  0  0  0  0  0  0  0  0  0  0
   -2.8704   -5.6284    0.8417 O   0  0  0  0  0  0  0  0  0  0  0  0
   -5.2247   -4.4123    0.8921 O   0  0  0  0  0  0  0  0  0  0  0  0
   -6.7701   -2.0332    1.5780 N   0  0  0  0  0  0  0  0  0  0  0  0
   -5.5058   -2.4699   -0.9582 O   0  0  0  0  0  0  0  0  0  0  0  0
   -0.6717   -1.1348    2.2955 O   0  0  0  0  0  0  0  0  0  0  0  0
    1.9476   -1.8828    0.8749 O   0  0  0  0  0  0  0  0  0  0  0  0
    3.0471   -1.9853   -0.0334 C   0  0  3  0  0  0  0  0  0  0  0  0
    3.7600   -3.3484    0.0827 C   0  0  3  0  0  0  0  0  0  0  0  0
    4.5130   -3.4238    1.4110 C   0  0  3  0  0  0  0  0  0  0  0  0
    5.4834   -2.2374    1.5485 C   0  0  3  0  0  0  0  0  0  0  0  0
    4.6925   -0.9275    1.3595 C   0  0  3  0  0  0  0  0  0  0  0  0
    4.0068   -0.9253    0.0826 O   0  0  0  0  0  0  0  0  0  0  0  0
    5.6356    0.2941    1.4327 C   0  0  0  0  0  0  0  0  0  0  0  0
    4.9123    1.5730    1.3598 N   0  0  0  0  0  0  0  0  0  0  0  0
    6.5487   -2.3275    0.5856 O   0  0  0  0  0  0  0  0  0  0  0  0
    5.2259   -4.6640    1.4953 O   0  0  0  0  0  0  0  0  0  0  0  0
    4.7322   -3.5049   -0.9895 O   0  0  0  0  0  0  0  0  0  0  0  0
    1.4974    0.6700    2.4962 N   0  0  0  0  0  0  0  0  0  0  0  0
    0.7674    1.6105   -0.6846 H   0  0  0  0  0  0  0  0  0  0  0  0
    0.8186    2.5843    0.7611 H   0  0  0  0  0  0  0  0  0  0  0  0
    2.4652    0.7570    0.6937 H   0  0  0  0  0  0  0  0  0  0  0  0
    1.0330   -0.7836   -0.5886 H   0  0  0  0  0  0  0  0  0  0  0  0
   -0.6324   -2.1810    0.5693 H   0  0  0  0  0  0  0  0  0  0  0  0
   -1.2817   -0.2360   -0.9157 H   0  0  0  0  0  0  0  0  0  0  0  0
   -1.2213    1.4523    1.6412 H   0  0  0  0  0  0  0  0  0  0  0  0
   -1.7626    2.3142   -1.1493 H   0  0  0  0  0  0  0  0  0  0  0  0
   -1.6711    4.9010   -1.3303 H   0  0  0  0  0  0  0  0  0  0  0  0
   -4.3260    4.2266    0.0582 H   0  0  0  0  0  0  0  0  0  0  0  0
   -3.7388    3.4985   -1.4363 H   0  0  0  0  0  0  0  0  0  0  0  0
   -3.8476    5.7617   -2.5529 H   0  0  0  0  0  0  0  0  0  0  0  0
   -4.4909    6.4494   -1.0520 H   0  0  0  0  0  0  0  0  0  0  0  0
   -5.7101    4.2935   -2.6398 H   0  0  0  0  0  0  0  0  0  0  0  0
   -6.2289    5.8316   -2.5203 H   0  0  0  0  0  0  0  0  0  0  0  0
   -2.2430    5.7753    1.2164 H   0  0  0  0  0  0  0  0  0  0  0  0
   -3.1307   -1.3906   -1.2251 H   0  0  0  0  0  0  0  0  0  0  0  0
   -5.3087   -0.5514   -0.2375 H   0  0  0  0  0  0  0  0  0  0  0  0
   -4.9109   -1.2597    2.1289 H   0  0  0  0  0  0  0  0  0  0  0  0
   -4.8965   -3.6492    2.7568 H   0  0  0  0  0  0  0  0  0  0  0  0
   -2.7621   -2.5503    2.2453 H   0  0  0  0  0  0  0  0  0  0  0  0
   -2.6536   -4.9768    2.7736 H   0  0  0  0  0  0  0  0  0  0  0  0
   -1.3739   -4.5029    1.6388 H   0  0  0  0  0  0  0  0  0  0  0  0
   -3.8501   -5.5756    0.8031 H   0  0  0  0  0  0  0  0  0  0  0  0
   -5.6118   -3.9747    0.1049 H   0  0  0  0  0  0  0  0  0  0  0  0
   -7.1724   -2.5563    0.7952 H   0  0  0  0  0  0  0  0  0  0  0  0
   -7.1587   -1.0943    1.5013 H   0  0  0  0  0  0  0  0  0  0  0  0
   -4.8285   -2.7425   -1.6065 H   0  0  0  0  0  0  0  0  0  0  0  0
   -1.4632   -0.5922    2.4742 H   0  0  0  0  0  0  0  0  0  0  0  0
    2.6615   -1.9281   -1.0590 H   0  0  0  0  0  0  0  0  0  0  0  0
    3.0485   -4.1774   -0.0021 H   0  0  0  0  0  0  0  0  0  0  0  0
    3.7967   -3.4054    2.2444 H   0  0  0  0  0  0  0  0  0  0  0  0
    5.9646   -2.2614    2.5302 H   0  0  0  0  0  0  0  0  0  0  0  0
    3.9478   -0.8414    2.1575 H   0  0  0  0  0  0  0  0  0  0  0  0
    6.3542    0.2759    0.6055 H   0  0  0  0  0  0  0  0  0  0  0  0
    6.1959    0.2711    2.3727 H   0  0  0  0  0  0  0  0  0  0  0  0
    4.5103    1.6471    0.4246 H   0  0  0  0  0  0  0  0  0  0  0  0
    5.5772    2.3390    1.4474 H   0  0  0  0  0  0  0  0  0  0  0  0
    6.1471   -2.5992   -0.2647 H   0  0  0  0  0  0  0  0  0  0  0  0
    5.7715   -4.7094    0.6853 H   0  0  0  0  0  0  0  0  0  0  0  0
    4.4866   -2.8967   -1.7121 H   0  0  0  0  0  0  0  0  0  0  0  0
    0.5871    0.8422    2.9037 H   0  0  0  0  0  0  0  0  0  0  0  0
    2.1083    1.4534    2.7665 H   0  0  0  0  0  0  0  0  0  0  0  0
  1  2  1  0  0  0  0
  1  6  1  0  0  0  0
  1 41  1  0  0  0  0
  1 42  1  0  0  0  0
  2  3  1  0  0  0  0
  2 40  1  0  0  0  0
  2 43  1  0  0  0  0
  3  4  1  0  0  0  0
  3 28  1  0  0  0  0
  3 44  1  0  0  0  0
  4  5  1  0  0  0  0
  4 27  1  0  0  0  0
  4 45  1  0  0  0  0
  5  6  1  0  0  0  0
  5 15  1  0  0  0  0
  5 46  1  0  0  0  0
  6  7  1  0  0  0  0
  6 47  1  0  0  0  0
  7  8  1  0  0  0  0
  7 48  1  0  0  0  0
  8  9  2  0  0  0  0
  8 10  1  0  0  0  0
 10 11  1  0  0  0  0
 10 14  1  0  0  0  0
 10 49  1  0  0  0  0
 11 12  1  0  0  0  0
 11 50  1  0  0  0  0
 11 51  1  0  0  0  0
 12 13  1  0  0  0  0
 12 52  1  0  0  0  0
 12 53  1  0  0  0  0
 13 54  1  0  0  0  0
 13 55  1  0  0  0  0
 14 56  1  0  0  0  0
 15 16  1  0  0  0  0
 16 17  1  0  0  0  0
 16 21  1  0  0  0  0
 16 57  1  0  0  0  0
 17 18  1  0  0  0  0
 17 26  1  0  0  0  0
 17 58  1  0  0  0  0
 18 19  1  0  0  0  0
 18 25  1  0  0  0  0
 18 59  1  0  0  0  0
 19 20  1  0  0  0  0
 19 24  1  0  0  0  0
 19 60  1  0  0  0  0
 20 21  1  0  0  0  0
 20 22  1  0  0  0  0
 20 61  1  0  0  0  0
 22 23  1  0  0  0  0
 22 62  1  0  0  0  0
 22 63  1  0  0  0  0
 23 64  1  0  0  0  0
 24 65  1  0  0  0  0
 25 66  1  0  0  0  0
 25 67  1  0  0  0  0
 26 68  1  0  0  0  0
 27 69  1  0  0  0  0
 28 29  1  0  0  0  0
 29 30  1  0  0  0  0
 29 34  1  0  0  0  0
 29 70  1  0  0  0  0
 30 31  1  0  0  0  0
 30 39  1  0  0  0  0
 30 71  1  0  0  0  0
 31 32  1  0  0  0  0
 31 38  1  0  0  0  0
 31 72  1  0  0  0  0
 32 33  1  0  0  0  0
 32 37  1  0  0  0  0
 32 73  1  0  0  0  0
 33 34  1  0  0  0  0
 33 35  1  0  0  0  0
 33 74  1  0  0  0  0
 35 36  1  0  0  0  0
 35 75  1  0  0  0  0
 35 76  1  0  0  0  0
 36 77  1  0  0  0  0
 36 78  1  0  0  0  0
 37 79  1  0  0  0  0
 38 80  1  0  0  0  0
 39 81  1  0  0  0  0
 40 82  1  0  0  0  0
 40 83  1  0  0  0  0
M  END
$$$$
Target_lig_176
 OpenBabel04172516553D

 45 47  0  0  0  0  0  0  0  0999 V2000
    1.3798   -0.3831   -0.9395 C   0  0  0  0  0  0  0  0  0  0  0  0
    2.6087   -0.0883   -0.1184 C   0  0  0  0  0  0  0  0  0  0  0  0
    3.0686    1.0449   -0.0441 O   0  0  0  0  0  0  0  0  0  0  0  0
    3.2574   -1.2056    0.6283 C   0  0  0  0  0  0  0  0  0  0  0  0
    4.3715   -0.9224    1.4395 C   0  0  0  0  0  0  0  0  0  0  0  0
    5.0255   -1.9305    2.1652 C   0  0  0  0  0  0  0  0  0  0  0  0
    4.5563   -3.2538    2.0309 C   0  0  0  0  0  0  0  0  0  0  0  0
    3.4410   -3.5392    1.2332 C   0  0  0  0  0  0  0  0  0  0  0  0
    2.7942   -2.5209    0.5343 C   0  0  0  0  0  0  0  0  0  0  0  0
    5.3487   -4.6177    2.8643 S   0  0  0  0  0  0  0  0  0  0  0  0
    7.0003   -3.9580    3.0215 C   0  0  0  0  0  0  0  0  0  0  0  0
    8.0712   -4.8614    3.0578 C   0  0  0  0  0  0  0  0  0  0  0  0
    9.3794   -4.3958    3.1546 C   0  0  0  0  0  0  0  0  0  0  0  0
    9.6246   -3.0309    3.2413 C   0  0  0  0  0  0  0  0  0  0  0  0
    8.5597   -2.1267    3.2218 C   0  0  0  0  0  0  0  0  0  0  0  0
    7.2307   -2.5699    3.1052 C   0  0  0  0  0  0  0  0  0  0  0  0
    6.1844   -1.6355    2.9219 N   0  0  0  0  0  0  0  0  0  0  0  0
    6.0643   -0.5633    3.9416 C   0  0  0  0  0  0  0  0  0  0  0  0
    5.1743   -0.9870    5.1249 C   0  0  0  0  0  0  0  0  0  0  0  0
    5.0553    0.1151    6.1918 C   0  0  0  0  0  0  0  0  0  0  0  0
    4.5178    1.3922    5.6898 N   0  0  0  0  0  0  0  0  0  0  0  0
    3.1606    1.2488    5.1583 C   0  0  0  0  0  0  0  0  0  0  0  0
    4.5264    2.4091    6.7461 C   0  0  0  0  0  0  0  0  0  0  0  0
    1.0023    0.5526   -1.3655 H   0  0  0  0  0  0  0  0  0  0  0  0
    0.5954   -0.8071   -0.3124 H   0  0  0  0  0  0  0  0  0  0  0  0
    1.6292   -1.0562   -1.7652 H   0  0  0  0  0  0  0  0  0  0  0  0
    4.7661    0.0908    1.4517 H   0  0  0  0  0  0  0  0  0  0  0  0
    3.0801   -4.5596    1.1401 H   0  0  0  0  0  0  0  0  0  0  0  0
    1.9428   -2.7867   -0.0858 H   0  0  0  0  0  0  0  0  0  0  0  0
    7.8899   -5.9304    2.9841 H   0  0  0  0  0  0  0  0  0  0  0  0
   10.2097   -5.1004    3.1446 H   0  0  0  0  0  0  0  0  0  0  0  0
   10.6459   -2.6600    3.2898 H   0  0  0  0  0  0  0  0  0  0  0  0
    8.7840   -1.0625    3.2241 H   0  0  0  0  0  0  0  0  0  0  0  0
    5.6789    0.3511    3.4782 H   0  0  0  0  0  0  0  0  0  0  0  0
    7.0471   -0.2840    4.3416 H   0  0  0  0  0  0  0  0  0  0  0  0
    5.5936   -1.8818    5.5970 H   0  0  0  0  0  0  0  0  0  0  0  0
    4.1781   -1.2778    4.7742 H   0  0  0  0  0  0  0  0  0  0  0  0
    6.0590    0.2892    6.6031 H   0  0  0  0  0  0  0  0  0  0  0  0
    4.4401   -0.2600    7.0216 H   0  0  0  0  0  0  0  0  0  0  0  0
    3.1525    0.6164    4.2652 H   0  0  0  0  0  0  0  0  0  0  0  0
    2.7668    2.2190    4.8379 H   0  0  0  0  0  0  0  0  0  0  0  0
    2.4715    0.8228    5.8957 H   0  0  0  0  0  0  0  0  0  0  0  0
    5.5433    2.5805    7.1155 H   0  0  0  0  0  0  0  0  0  0  0  0
    3.8899    2.1331    7.5953 H   0  0  0  0  0  0  0  0  0  0  0  0
    4.1738    3.3698    6.3532 H   0  0  0  0  0  0  0  0  0  0  0  0
  1  2  1  0  0  0  0
  1 24  1  0  0  0  0
  1 25  1  0  0  0  0
  1 26  1  0  0  0  0
  2  3  2  0  0  0  0
  2  4  1  0  0  0  0
  4  5  2  0  0  0  0
  4  9  1  0  0  0  0
  5  6  1  0  0  0  0
  5 27  1  0  0  0  0
  6  7  2  0  0  0  0
  6 17  1  0  0  0  0
  7  8  1  0  0  0  0
  7 10  1  0  0  0  0
  8  9  2  0  0  0  0
  8 28  1  0  0  0  0
  9 29  1  0  0  0  0
 10 11  1  0  0  0  0
 11 12  2  0  0  0  0
 11 16  1  0  0  0  0
 12 13  1  0  0  0  0
 12 30  1  0  0  0  0
 13 14  2  0  0  0  0
 13 31  1  0  0  0  0
 14 15  1  0  0  0  0
 14 32  1  0  0  0  0
 15 16  2  0  0  0  0
 15 33  1  0  0  0  0
 16 17  1  0  0  0  0
 17 18  1  0  0  0  0
 18 19  1  0  0  0  0
 18 34  1  0  0  0  0
 18 35  1  0  0  0  0
 19 20  1  0  0  0  0
 19 36  1  0  0  0  0
 19 37  1  0  0  0  0
 20 21  1  0  0  0  0
 20 38  1  0  0  0  0
 20 39  1  0  0  0  0
 21 22  1  0  0  0  0
 21 23  1  0  0  0  0
 22 40  1  0  0  0  0
 22 41  1  0  0  0  0
 22 42  1  0  0  0  0
 23 43  1  0  0  0  0
 23 44  1  0  0  0  0
 23 45  1  0  0  0  0
M  END
$$$$
Target_lig_179
 OpenBabel04172516553D

 58 63  0  0  0  0  0  0  0  0999 V2000
    1.8957   -1.3998   -1.3099 C   0  0  0  0  0  0  0  0  0  0  0  0
    0.8103   -0.5240   -0.8785 N   0  0  0  0  0  0  0  0  0  0  0  0
   -0.4271   -0.8106   -1.6384 C   0  0  0  0  0  0  0  0  0  0  0  0
   -1.6054    0.0925   -1.2030 C   0  0  0  0  0  0  0  0  0  0  0  0
   -1.8123   -0.0598    0.2423 N   0  0  0  0  0  0  0  0  0  0  0  0
   -0.6106    0.2133    1.0496 C   0  0  0  0  0  0  0  0  0  0  0  0
    0.5484   -0.6863    0.5677 C   0  0  0  0  0  0  0  0  0  0  0  0
   -3.0661   -0.0121    0.8215 C   0  0  0  0  0  0  0  0  0  0  0  0
   -4.1630    0.5993    0.1891 C   0  0  0  0  0  0  0  0  0  0  0  0
   -5.4074    0.5502    0.8314 C   0  0  0  0  0  0  0  0  0  0  0  0
   -5.6056   -0.0635    2.0567 C   0  0  0  0  0  0  0  0  0  0  0  0
   -4.5297   -0.6839    2.6892 C   0  0  0  0  0  0  0  0  0  0  0  0
   -3.2796   -0.6533    2.0532 C   0  0  0  0  0  0  0  0  0  0  0  0
   -6.9101    0.0501    2.4588 N   0  0  0  0  0  0  0  0  0  0  0  0
   -7.5357    0.6911    1.4887 C   0  0  0  0  0  0  0  0  0  0  0  0
   -6.6461    1.0259    0.4907 N   0  0  0  0  0  0  0  0  0  0  0  0
   -8.9590    1.0374    1.4573 C   0  0  0  0  0  0  0  0  0  0  0  0
   -9.6223    1.2858    2.6727 C   0  0  0  0  0  0  0  0  0  0  0  0
  -10.9804    1.6084    2.6104 C   0  0  0  0  0  0  0  0  0  0  0  0
  -11.6968    1.6731    1.4242 C   0  0  0  0  0  0  0  0  0  0  0  0
  -11.0356    1.4206    0.2158 C   0  0  0  0  0  0  0  0  0  0  0  0
   -9.6678    1.1043    0.2478 C   0  0  0  0  0  0  0  0  0  0  0  0
  -13.0153    1.9824    1.6618 N   0  0  0  0  0  0  0  0  0  0  0  0
  -13.1190    2.1426    2.9683 C   0  0  0  0  0  0  0  0  0  0  0  0
  -11.9029    1.9103    3.5740 N   0  0  0  0  0  0  0  0  0  0  0  0
  -14.3369    2.4750    3.7095 C   0  0  0  0  0  0  0  0  0  0  0  0
  -15.5894    2.0814    3.2028 C   0  0  0  0  0  0  0  0  0  0  0  0
  -16.7499    2.3623    3.9225 C   0  0  0  0  0  0  0  0  0  0  0  0
  -16.6727    3.0438    5.1295 C   0  0  0  0  0  0  0  0  0  0  0  0
  -15.4432    3.4526    5.6237 C   0  0  0  0  0  0  0  0  0  0  0  0
  -14.2746    3.1772    4.9250 C   0  0  0  0  0  0  0  0  0  0  0  0
  -15.3644    4.1282    6.8058 O   0  0  0  0  0  0  0  0  0  0  0  0
  -17.8029    3.3203    5.8499 O   0  0  0  0  0  0  0  0  0  0  0  0
  -17.9867    1.9794    3.4862 O   0  0  0  0  0  0  0  0  0  0  0  0
    2.1073   -1.2479   -2.3740 H   0  0  0  0  0  0  0  0  0  0  0  0
    1.6666   -2.4594   -1.1507 H   0  0  0  0  0  0  0  0  0  0  0  0
    2.8174   -1.1597   -0.7689 H   0  0  0  0  0  0  0  0  0  0  0  0
   -0.7196   -1.8607   -1.4981 H   0  0  0  0  0  0  0  0  0  0  0  0
   -0.2506   -0.6592   -2.7094 H   0  0  0  0  0  0  0  0  0  0  0  0
   -2.4870   -0.2172   -1.7756 H   0  0  0  0  0  0  0  0  0  0  0  0
   -1.3921    1.1414   -1.4462 H   0  0  0  0  0  0  0  0  0  0  0  0
   -0.7587    0.0396    2.1203 H   0  0  0  0  0  0  0  0  0  0  0  0
   -0.3327    1.2699    0.9415 H   0  0  0  0  0  0  0  0  0  0  0  0
    0.3025   -1.7329    0.7951 H   0  0  0  0  0  0  0  0  0  0  0  0
    1.4485   -0.4285    1.1386 H   0  0  0  0  0  0  0  0  0  0  0  0
   -4.0595    1.1107   -0.7586 H   0  0  0  0  0  0  0  0  0  0  0  0
   -4.6642   -1.1970    3.6342 H   0  0  0  0  0  0  0  0  0  0  0  0
   -2.4669   -1.1906    2.5369 H   0  0  0  0  0  0  0  0  0  0  0  0
   -6.8701    1.5437   -0.3430 H   0  0  0  0  0  0  0  0  0  0  0  0
   -9.0929    1.2280    3.6206 H   0  0  0  0  0  0  0  0  0  0  0  0
  -11.5831    1.4588   -0.7206 H   0  0  0  0  0  0  0  0  0  0  0  0
   -9.1791    0.8796   -0.6976 H   0  0  0  0  0  0  0  0  0  0  0  0
  -11.7308    1.9329    4.5685 H   0  0  0  0  0  0  0  0  0  0  0  0
  -15.6353    1.5499    2.2562 H   0  0  0  0  0  0  0  0  0  0  0  0
  -13.3339    3.5298    5.3320 H   0  0  0  0  0  0  0  0  0  0  0  0
  -16.2928    4.2092    7.1026 H   0  0  0  0  0  0  0  0  0  0  0  0
  -18.5285    2.9363    5.3161 H   0  0  0  0  0  0  0  0  0  0  0  0
  -17.8777    1.5087    2.6413 H   0  0  0  0  0  0  0  0  0  0  0  0
  1  2  1  0  0  0  0
  1 35  1  0  0  0  0
  1 36  1  0  0  0  0
  1 37  1  0  0  0  0
  2  3  1  0  0  0  0
  2  7  1  0  0  0  0
  3  4  1  0  0  0  0
  3 38  1  0  0  0  0
  3 39  1  0  0  0  0
  4  5  1  0  0  0  0
  4 40  1  0  0  0  0
  4 41  1  0  0  0  0
  5  6  1  0  0  0  0
  5  8  1  0  0  0  0
  6  7  1  0  0  0  0
  6 42  1  0  0  0  0
  6 43  1  0  0  0  0
  7 44  1  0  0  0  0
  7 45  1  0  0  0  0
  8  9  2  0  0  0  0
  8 13  1  0  0  0  0
  9 10  1  0  0  0  0
  9 46  1  0  0  0  0
 10 11  2  0  0  0  0
 10 16  1  0  0  0  0
 11 12  1  0  0  0  0
 11 14  1  0  0  0  0
 12 13  2  0  0  0  0
 12 47  1  0  0  0  0
 13 48  1  0  0  0  0
 14 15  2  0  0  0  0
 15 16  1  0  0  0  0
 15 17  1  0  0  0  0
 16 49  1  0  0  0  0
 17 18  2  0  0  0  0
 17 22  1  0  0  0  0
 18 19  1  0  0  0  0
 18 50  1  0  0  0  0
 19 20  2  0  0  0  0
 19 25  1  0  0  0  0
 20 21  1  0  0  0  0
 20 23  1  0  0  0  0
 21 22  2  0  0  0  0
 21 51  1  0  0  0  0
 22 52  1  0  0  0  0
 23 24  2  0  0  0  0
 24 25  1  0  0  0  0
 24 26  1  0  0  0  0
 25 53  1  0  0  0  0
 26 27  2  0  0  0  0
 26 31  1  0  0  0  0
 27 28  1  0  0  0  0
 27 54  1  0  0  0  0
 28 29  2  0  0  0  0
 28 34  1  0  0  0  0
 29 30  1  0  0  0  0
 29 33  1  0  0  0  0
 30 31  2  0  0  0  0
 30 32  1  0  0  0  0
 31 55  1  0  0  0  0
 32 56  1  0  0  0  0
 33 57  1  0  0  0  0
 34 58  1  0  0  0  0
M  END
$$$$
Target_lig_180
 OpenBabel04172516553D

 50 55  0  0  0  0  0  0  0  0999 V2000
  -19.6899    6.2923    6.9536 C   0  0  0  0  0  0  0  0  0  0  0  0
  -18.3139    5.8802    7.2324 N   0  0  0  0  0  0  0  0  0  0  0  0
  -18.2486    4.4277    7.4661 C   0  0  0  0  0  0  0  0  0  0  0  0
  -16.8166    3.9666    7.7956 C   0  0  0  0  0  0  0  0  0  0  0  0
  -15.9005    4.2539    6.6665 N   0  0  0  0  0  0  0  0  0  0  0  0
  -15.9360    5.7066    6.3393 C   0  0  0  0  0  0  0  0  0  0  0  0
  -17.3982    6.2151    6.1176 C   0  0  0  0  0  0  0  0  0  0  0  0
  -14.8746    3.3775    6.3000 C   0  0  0  0  0  0  0  0  0  0  0  0
  -13.7967    3.6906    5.6074 C   0  0  0  0  0  0  0  0  0  0  0  0
  -12.8951    2.9913    5.2147 C   0  0  0  0  0  0  0  0  0  0  0  0
  -12.7815    1.7098    5.4190 C   0  0  0  0  0  0  0  0  0  0  0  0
  -13.9271    1.1064    6.1134 C   0  0  0  0  0  0  0  0  0  0  0  0
  -14.9416    1.8927    6.5501 C   0  0  0  0  0  0  0  0  0  0  0  0
  -13.6490   -0.2170    6.0678 N   0  0  0  0  0  0  0  0  0  0  0  0
  -12.4873   -0.4273    5.3214 C   0  0  0  0  0  0  0  0  0  0  0  0
  -11.9484    0.7205    4.9057 N   0  0  0  0  0  0  0  0  0  0  0  0
  -11.9480   -1.8086    5.0264 C   0  0  0  0  0  0  0  0  0  0  0  0
  -12.5865   -2.8886    5.4319 C   0  0  0  0  0  0  0  0  0  0  0  0
  -12.3098   -4.0531    5.3350 C   0  0  0  0  0  0  0  0  0  0  0  0
  -11.2317   -4.4899    4.7620 C   0  0  0  0  0  0  0  0  0  0  0  0
  -10.3229   -3.4781    4.2117 C   0  0  0  0  0  0  0  0  0  0  0  0
  -10.6493   -2.1558    4.3261 C   0  0  0  0  0  0  0  0  0  0  0  0
   -9.2421   -4.1592    3.6485 N   0  0  0  0  0  0  0  0  0  0  0  0
   -9.4840   -5.4653    3.8312 C   0  0  0  0  0  0  0  0  0  0  0  0
  -10.6820   -5.6897    4.4983 N   0  0  0  0  0  0  0  0  0  0  0  0
   -8.5557   -6.5430    3.3557 C   0  0  0  0  0  0  0  0  0  0  0  0
   -8.8307   -7.8251    3.3954 C   0  0  0  0  0  0  0  0  0  0  0  0
   -8.1959   -8.7372    2.9325 C   0  0  0  0  0  0  0  0  0  0  0  0
   -7.0759   -8.6763    2.2690 C   0  0  0  0  0  0  0  0  0  0  0  0
   -6.5406   -7.3083    2.1405 C   0  0  0  0  0  0  0  0  0  0  0  0
   -7.2538   -6.2720    2.6742 C   0  0  0  0  0  0  0  0  0  0  0  0
   -6.1873   -9.7166    2.2108 O   0  0  0  0  0  0  0  0  0  0  0  0
  -20.3436    6.0353    7.7968 H   0  0  0  0  0  0  0  0  0  0  0  0
  -20.0988    5.8172    6.0545 H   0  0  0  0  0  0  0  0  0  0  0  0
  -19.7554    7.3790    6.8327 H   0  0  0  0  0  0  0  0  0  0  0  0
  -18.6148    3.8801    6.5866 H   0  0  0  0  0  0  0  0  0  0  0  0
  -18.8966    4.1629    8.3102 H   0  0  0  0  0  0  0  0  0  0  0  0
  -16.8602    2.9045    8.0422 H   0  0  0  0  0  0  0  0  0  0  0  0
  -16.4546    4.4830    8.6947 H   0  0  0  0  0  0  0  0  0  0  0  0
  -15.3586    5.9294    5.4356 H   0  0  0  0  0  0  0  0  0  0  0  0
  -15.4861    6.2724    7.1665 H   0  0  0  0  0  0  0  0  0  0  0  0
  -17.7792    5.7892    5.1800 H   0  0  0  0  0  0  0  0  0  0  0  0
  -17.3742    7.3054    5.9933 H   0  0  0  0  0  0  0  0  0  0  0  0
  -15.8139    1.4642    7.0164 H   0  0  0  0  0  0  0  0  0  0  0  0
  -14.3080   -0.9259    6.3416 H   0  0  0  0  0  0  0  0  0  0  0  0
  -10.0227   -1.3626    3.9412 H   0  0  0  0  0  0  0  0  0  0  0  0
  -11.0779   -6.5754    4.7662 H   0  0  0  0  0  0  0  0  0  0  0  0
   -5.5851   -7.1721    1.6469 H   0  0  0  0  0  0  0  0  0  0  0  0
   -6.8959   -5.2496    2.6421 H   0  0  0  0  0  0  0  0  0  0  0  0
   -6.6312  -10.5124    2.5507 H   0  0  0  0  0  0  0  0  0  0  0  0
  1  2  1  0  0  0  0
  1 33  1  0  0  0  0
  1 34  1  0  0  0  0
  1 35  1  0  0  0  0
  2  3  1  0  0  0  0
  2  7  1  0  0  0  0
  3  4  1  0  0  0  0
  3 36  1  0  0  0  0
  3 37  1  0  0  0  0
  4  5  1  0  0  0  0
  4 38  1  0  0  0  0
  4 39  1  0  0  0  0
  5  6  1  0  0  0  0
  5  8  1  0  0  0  0
  6  7  1  0  0  0  0
  6 40  1  0  0  0  0
  6 41  1  0  0  0  0
  7 42  1  0  0  0  0
  7 43  1  0  0  0  0
  8  9  2  0  0  0  0
  8 13  1  0  0  0  0
  9 10  2  0  0  0  0
 10 11  2  0  0  0  0
 11 12  1  0  0  0  0
 11 16  1  0  0  0  0
 12 13  2  0  0  0  0
 12 14  1  0  0  0  0
 13 44  1  0  0  0  0
 14 15  1  0  0  0  0
 14 45  1  0  0  0  0
 15 16  2  0  0  0  0
 15 17  1  0  0  0  0
 17 18  2  0  0  0  0
 17 22  1  0  0  0  0
 18 19  2  0  0  0  0
 19 20  2  0  0  0  0
 20 21  1  0  0  0  0
 20 25  1  0  0  0  0
 21 22  2  0  0  0  0
 21 23  1  0  0  0  0
 22 46  1  0  0  0  0
 23 24  2  0  0  0  0
 24 25  1  0  0  0  0
 24 26  1  0  0  0  0
 25 47  1  0  0  0  0
 26 27  2  0  0  0  0
 26 31  1  0  0  0  0
 27 28  2  0  0  0  0
 28 29  2  0  0  0  0
 29 30  1  0  0  0  0
 29 32  1  0  0  0  0
 30 31  2  0  0  0  0
 30 48  1  0  0  0  0
 31 49  1  0  0  0  0
 32 50  1  0  0  0  0
M  END
$$$$
Target_lig_181
 OpenBabel04172516553D

 36 40  0  0  0  0  0  0  0  0999 V2000
   -6.1768    0.3257    0.1406 C   0  0  0  0  0  0  0  0  0  0  0  0
   -6.0679   -1.0651    0.0951 C   0  0  0  0  0  0  0  0  0  0  0  0
   -4.8129   -1.6717   -0.0085 C   0  0  0  0  0  0  0  0  0  0  0  0
   -3.6543   -0.8935   -0.0737 C   0  0  0  0  0  0  0  0  0  0  0  0
   -3.7754    0.5046   -0.0061 C   0  0  0  0  0  0  0  0  0  0  0  0
   -5.0296    1.1153    0.0863 C   0  0  0  0  0  0  0  0  0  0  0  0
   -2.5415    1.3299   -0.0224 C   0  0  0  0  0  0  0  0  0  0  0  0
   -2.6028    2.5554   -0.0322 O   0  0  0  0  0  0  0  0  0  0  0  0
   -1.2251    0.6446   -0.0189 C   0  0  0  0  0  0  0  0  0  0  0  0
   -0.0445    1.3968    0.0504 C   0  0  0  0  0  0  0  0  0  0  0  0
    1.1894    0.7501    0.0809 C   0  0  0  0  0  0  0  0  0  0  0  0
    1.2229   -0.6525    0.0103 C   0  0  0  0  0  0  0  0  0  0  0  0
    0.0429   -1.4056   -0.0596 C   0  0  0  0  0  0  0  0  0  0  0  0
   -1.1918   -0.7589   -0.0893 C   0  0  0  0  0  0  0  0  0  0  0  0
   -2.3871   -1.4931   -0.0850 N   0  0  0  0  0  0  0  0  0  0  0  0
    2.5403   -1.3366    0.0169 C   0  0  0  0  0  0  0  0  0  0  0  0
    2.6015   -2.5627    0.0244 O   0  0  0  0  0  0  0  0  0  0  0  0
    3.7729   -0.5121    0.0043 C   0  0  0  0  0  0  0  0  0  0  0  0
    5.0279   -1.1216   -0.0871 C   0  0  0  0  0  0  0  0  0  0  0  0
    6.1752   -0.3313   -0.1386 C   0  0  0  0  0  0  0  0  0  0  0  0
    6.0657    1.0589   -0.0923 C   0  0  0  0  0  0  0  0  0  0  0  0
    4.8102    1.6654    0.0110 C   0  0  0  0  0  0  0  0  0  0  0  0
    3.6518    0.8857    0.0713 C   0  0  0  0  0  0  0  0  0  0  0  0
    2.3838    1.4855    0.0804 N   0  0  0  0  0  0  0  0  0  0  0  0
   -7.1543    0.7934    0.2291 H   0  0  0  0  0  0  0  0  0  0  0  0
   -6.9630   -1.6800    0.1525 H   0  0  0  0  0  0  0  0  0  0  0  0
   -4.7488   -2.7564   -0.0231 H   0  0  0  0  0  0  0  0  0  0  0  0
   -5.1108    2.1991    0.1327 H   0  0  0  0  0  0  0  0  0  0  0  0
   -0.1028    2.4822    0.0796 H   0  0  0  0  0  0  0  0  0  0  0  0
    0.1008   -2.4911   -0.0885 H   0  0  0  0  0  0  0  0  0  0  0  0
   -2.3359   -2.4660   -0.3610 H   0  0  0  0  0  0  0  0  0  0  0  0
    5.1095   -2.2052   -0.1343 H   0  0  0  0  0  0  0  0  0  0  0  0
    7.1528   -0.7992   -0.2274 H   0  0  0  0  0  0  0  0  0  0  0  0
    6.9611    1.6740   -0.1489 H   0  0  0  0  0  0  0  0  0  0  0  0
    4.7466    2.7501    0.0260 H   0  0  0  0  0  0  0  0  0  0  0  0
    2.3319    2.4587    0.3585 H   0  0  0  0  0  0  0  0  0  0  0  0
  1  2  2  0  0  0  0
  1  6  1  0  0  0  0
  1 25  1  0  0  0  0
  2  3  1  0  0  0  0
  2 26  1  0  0  0  0
  3  4  2  0  0  0  0
  3 27  1  0  0  0  0
  4  5  1  0  0  0  0
  4 15  1  0  0  0  0
  5  6  2  0  0  0  0
  5  7  1  0  0  0  0
  6 28  1  0  0  0  0
  7  8  2  0  0  0  0
  7  9  1  0  0  0  0
  9 10  2  0  0  0  0
  9 14  1  0  0  0  0
 10 11  1  0  0  0  0
 10 29  1  0  0  0  0
 11 12  2  0  0  0  0
 11 24  1  0  0  0  0
 12 13  1  0  0  0  0
 12 16  1  0  0  0  0
 13 14  2  0  0  0  0
 13 30  1  0  0  0  0
 14 15  1  0  0  0  0
 15 31  1  0  0  0  0
 16 17  2  0  0  0  0
 16 18  1  0  0  0  0
 18 19  2  0  0  0  0
 18 23  1  0  0  0  0
 19 20  1  0  0  0  0
 19 32  1  0  0  0  0
 20 21  2  0  0  0  0
 20 33  1  0  0  0  0
 21 22  1  0  0  0  0
 21 34  1  0  0  0  0
 22 23  2  0  0  0  0
 22 35  1  0  0  0  0
 23 24  1  0  0  0  0
 24 36  1  0  0  0  0
M  END
$$$$
Target_lig_182
 OpenBabel04172516553D

 60 62  0  0  0  0  0  0  0  0999 V2000
    3.6869    0.7357   -0.0222 C   0  0  0  0  0  0  0  0  0  0  0  0
    3.7156   -0.6486    0.0221 C   0  0  0  0  0  0  0  0  0  0  0  0
    2.5407   -1.4046    0.0341 C   0  0  0  0  0  0  0  0  0  0  0  0
    1.2992   -0.7219   -0.0034 C   0  0  0  0  0  0  0  0  0  0  0  0
    1.2774    0.6846   -0.0010 C   0  0  0  0  0  0  0  0  0  0  0  0
    2.4812    1.4309   -0.0250 C   0  0  0  0  0  0  0  0  0  0  0  0
    2.4837    2.8123   -0.1190 N   0  0  0  0  0  0  0  0  0  0  0  0
    3.5368    3.5749   -0.7594 C   0  0  0  0  0  0  0  0  0  0  0  0
    2.9773    4.8583   -1.4045 C   0  0  0  0  0  0  0  0  0  0  0  0
    2.3453    5.7032   -0.3801 N   0  0  0  0  0  0  0  0  0  0  0  0
    1.8045    6.9336   -0.9698 C   0  0  0  0  0  0  0  0  0  0  0  0
    1.1484    7.7842    0.1238 C   0  0  0  0  0  0  0  0  0  0  0  0
    2.1006    8.1430    1.1235 O   0  0  0  0  0  0  0  0  0  0  0  0
   -0.0229    1.3914    0.0103 C   0  0  0  0  0  0  0  0  0  0  0  0
   -0.1015    2.6223    0.0638 O   0  0  0  0  0  0  0  0  0  0  0  0
   -1.2877    0.6494   -0.0010 C   0  0  0  0  0  0  0  0  0  0  0  0
   -2.5067    1.3581    0.0002 C   0  0  0  0  0  0  0  0  0  0  0  0
   -3.7210    0.6904    0.0011 C   0  0  0  0  0  0  0  0  0  0  0  0
   -3.7395   -0.6986    0.0029 C   0  0  0  0  0  0  0  0  0  0  0  0
   -2.5321   -1.4094    0.0020 C   0  0  0  0  0  0  0  0  0  0  0  0
   -1.2906   -0.7427   -0.0009 C   0  0  0  0  0  0  0  0  0  0  0  0
    0.0053   -1.4868   -0.0206 C   0  0  0  0  0  0  0  0  0  0  0  0
    0.0107   -2.6917   -0.0838 O   0  0  0  0  0  0  0  0  0  0  0  0
   -2.6046   -2.7750    0.0097 O   0  0  0  0  0  0  0  0  0  0  0  0
   -2.5841    2.7281    0.0012 O   0  0  0  0  0  0  0  0  0  0  0  0
    2.6301   -2.7877    0.1221 N   0  0  0  0  0  0  0  0  0  0  0  0
    3.6840   -3.4549    0.8705 C   0  0  0  0  0  0  0  0  0  0  0  0
    3.1979   -4.7843    1.4805 C   0  0  0  0  0  0  0  0  0  0  0  0
    2.7528   -5.7049    0.4226 N   0  0  0  0  0  0  0  0  0  0  0  0
    2.2890   -6.9759    0.9908 C   0  0  0  0  0  0  0  0  0  0  0  0
    1.8169   -7.9115   -0.1287 C   0  0  0  0  0  0  0  0  0  0  0  0
    2.8810   -8.1905   -1.0369 O   0  0  0  0  0  0  0  0  0  0  0  0
    4.6354    1.2647   -0.0243 H   0  0  0  0  0  0  0  0  0  0  0  0
    4.6902   -1.1316    0.0290 H   0  0  0  0  0  0  0  0  0  0  0  0
    1.8707    3.3169    0.5249 H   0  0  0  0  0  0  0  0  0  0  0  0
    4.0034    2.9733   -1.5502 H   0  0  0  0  0  0  0  0  0  0  0  0
    4.3022    3.8371   -0.0219 H   0  0  0  0  0  0  0  0  0  0  0  0
    2.2528    4.5890   -2.1820 H   0  0  0  0  0  0  0  0  0  0  0  0
    3.8002    5.4012   -1.8870 H   0  0  0  0  0  0  0  0  0  0  0  0
    3.0358    5.9232    0.3256 H   0  0  0  0  0  0  0  0  0  0  0  0
    1.0606    6.6964   -1.7378 H   0  0  0  0  0  0  0  0  0  0  0  0
    2.6144    7.5058   -1.4397 H   0  0  0  0  0  0  0  0  0  0  0  0
    0.3207    7.2468    0.6002 H   0  0  0  0  0  0  0  0  0  0  0  0
    0.7512    8.7071   -0.3087 H   0  0  0  0  0  0  0  0  0  0  0  0
    2.4074    7.3111    1.5196 H   0  0  0  0  0  0  0  0  0  0  0  0
   -4.6518    1.2551    0.0033 H   0  0  0  0  0  0  0  0  0  0  0  0
   -4.6969   -1.2110    0.0066 H   0  0  0  0  0  0  0  0  0  0  0  0
   -3.5266   -3.0715   -0.0017 H   0  0  0  0  0  0  0  0  0  0  0  0
   -1.6649    3.0836    0.0124 H   0  0  0  0  0  0  0  0  0  0  0  0
    2.1378   -3.3286   -0.5909 H   0  0  0  0  0  0  0  0  0  0  0  0
    4.0155   -2.8099    1.6938 H   0  0  0  0  0  0  0  0  0  0  0  0
    4.5399   -3.6474    0.2146 H   0  0  0  0  0  0  0  0  0  0  0  0
    2.3835   -4.5845    2.1868 H   0  0  0  0  0  0  0  0  0  0  0  0
    4.0242   -5.2365    2.0451 H   0  0  0  0  0  0  0  0  0  0  0  0
    3.5198   -5.8584   -0.2167 H   0  0  0  0  0  0  0  0  0  0  0  0
    1.4629   -6.8050    1.6890 H   0  0  0  0  0  0  0  0  0  0  0  0
    3.1103   -7.4534    1.5393 H   0  0  0  0  0  0  0  0  0  0  0  0
    0.9805   -7.4750   -0.6854 H   0  0  0  0  0  0  0  0  0  0  0  0
    1.4826   -8.8628    0.2963 H   0  0  0  0  0  0  0  0  0  0  0  0
    3.1371   -7.3366   -1.4240 H   0  0  0  0  0  0  0  0  0  0  0  0
  1  2  2  0  0  0  0
  1  6  1  0  0  0  0
  1 33  1  0  0  0  0
  2  3  1  0  0  0  0
  2 34  1  0  0  0  0
  3  4  2  0  0  0  0
  3 26  1  0  0  0  0
  4  5  1  0  0  0  0
  4 22  1  0  0  0  0
  5  6  2  0  0  0  0
  5 14  1  0  0  0  0
  6  7  1  0  0  0  0
  7  8  1  0  0  0  0
  7 35  1  0  0  0  0
  8  9  1  0  0  0  0
  8 36  1  0  0  0  0
  8 37  1  0  0  0  0
  9 10  1  0  0  0  0
  9 38  1  0  0  0  0
  9 39  1  0  0  0  0
 10 11  1  0  0  0  0
 10 40  1  0  0  0  0
 11 12  1  0  0  0  0
 11 41  1  0  0  0  0
 11 42  1  0  0  0  0
 12 13  1  0  0  0  0
 12 43  1  0  0  0  0
 12 44  1  0  0  0  0
 13 45  1  0  0  0  0
 14 15  2  0  0  0  0
 14 16  1  0  0  0  0
 16 17  2  0  0  0  0
 16 21  1  0  0  0  0
 17 18  1  0  0  0  0
 17 25  1  0  0  0  0
 18 19  2  0  0  0  0
 18 46  1  0  0  0  0
 19 20  1  0  0  0  0
 19 47  1  0  0  0  0
 20 21  2  0  0  0  0
 20 24  1  0  0  0  0
 21 22  1  0  0  0  0
 22 23  2  0  0  0  0
 24 48  1  0  0  0  0
 25 49  1  0  0  0  0
 26 27  1  0  0  0  0
 26 50  1  0  0  0  0
 27 28  1  0  0  0  0
 27 51  1  0  0  0  0
 27 52  1  0  0  0  0
 28 29  1  0  0  0  0
 28 53  1  0  0  0  0
 28 54  1  0  0  0  0
 29 30  1  0  0  0  0
 29 55  1  0  0  0  0
 30 31  1  0  0  0  0
 30 56  1  0  0  0  0
 30 57  1  0  0  0  0
 31 32  1  0  0  0  0
 31 58  1  0  0  0  0
 31 59  1  0  0  0  0
 32 60  1  0  0  0  0
M  END
$$$$
Target_lig_183
 OpenBabel04172516553D

 54 54  0  0  0  0  0  0  0  0999 V2000
    1.1757   -0.3228   -0.3820 C   0  0  0  0  0  0  0  0  0  0  0  0
    2.3954    0.1592    0.1634 O   0  0  0  0  0  0  0  0  0  0  0  0
    3.1122   -0.7060    0.9404 C   0  0  0  0  0  0  0  0  0  0  0  0
    2.7738   -2.0184    1.2535 C   0  0  0  0  0  0  0  0  0  0  0  0
    3.6128   -2.8331    2.0595 C   0  0  0  0  0  0  0  0  0  0  0  0
    4.8084   -2.2875    2.5626 C   0  0  0  0  0  0  0  0  0  0  0  0
    5.1292   -0.9625    2.2353 C   0  0  0  0  0  0  0  0  0  0  0  0
    4.2971   -0.1837    1.4325 C   0  0  0  0  0  0  0  0  0  0  0  0
    5.6295   -3.0790    3.3410 O   0  0  0  0  0  0  0  0  0  0  0  0
    6.8010   -2.4073    3.8389 C   0  0  0  0  0  0  0  0  0  0  0  0
    7.7064   -3.2856    4.6969 C   0  0  0  0  0  0  0  0  0  0  0  0
    7.0216   -3.6550    5.9323 N   0  0  0  0  0  0  0  0  0  0  0  0
    7.6790   -4.3418    6.7892 C   0  0  0  0  0  0  0  0  0  0  0  0
    8.9664   -4.7469    6.7601 N   0  0  0  0  0  0  0  0  0  0  0  0
    7.0340   -4.7847    7.8925 N   0  0  0  0  0  0  0  0  0  0  0  0
    3.1569   -4.2561    2.3169 C   0  0  0  0  0  0  0  0  0  0  0  0
    2.2674   -4.4316    3.4718 N   0  0  0  0  0  0  0  0  0  0  0  0
    1.0161   -3.6868    3.3617 C   0  0  0  0  0  0  0  0  0  0  0  0
    0.1247   -3.9808    4.5599 C   0  0  0  0  0  0  0  0  0  0  0  0
   -1.1516   -3.1407    4.4990 C   0  0  0  0  0  0  0  0  0  0  0  0
   -2.0097   -3.4293    5.7195 C   0  0  0  0  0  0  0  0  0  0  0  0
   -3.2052   -2.5959    5.6717 N   0  0  0  0  0  0  0  0  0  0  0  0
   -4.0177   -2.7016    6.6591 C   0  0  0  0  0  0  0  0  0  0  0  0
   -3.9313   -3.5038    7.7430 N   0  0  0  0  0  0  0  0  0  0  0  0
   -5.1006   -1.9028    6.7115 N   0  0  0  0  0  0  0  0  0  0  0  0
    0.8154    0.4260   -1.0929 H   0  0  0  0  0  0  0  0  0  0  0  0
    0.4231   -0.4372    0.4044 H   0  0  0  0  0  0  0  0  0  0  0  0
    1.3185   -1.2565   -0.9351 H   0  0  0  0  0  0  0  0  0  0  0  0
    1.8436   -2.4472    0.8947 H   0  0  0  0  0  0  0  0  0  0  0  0
    6.0370   -0.4759    2.5783 H   0  0  0  0  0  0  0  0  0  0  0  0
    4.5835    0.8343    1.1933 H   0  0  0  0  0  0  0  0  0  0  0  0
    6.5016   -1.5391    4.4393 H   0  0  0  0  0  0  0  0  0  0  0  0
    7.4103   -2.0866    2.9820 H   0  0  0  0  0  0  0  0  0  0  0  0
    8.6031   -2.6980    4.9277 H   0  0  0  0  0  0  0  0  0  0  0  0
    7.9981   -4.1815    4.1376 H   0  0  0  0  0  0  0  0  0  0  0  0
    9.5587   -4.2945    6.0788 H   0  0  0  0  0  0  0  0  0  0  0  0
    9.4242   -4.8815    7.6491 H   0  0  0  0  0  0  0  0  0  0  0  0
    6.1346   -4.3463    8.0096 H   0  0  0  0  0  0  0  0  0  0  0  0
    7.5592   -4.8985    8.7441 H   0  0  0  0  0  0  0  0  0  0  0  0
    4.0245   -4.9127    2.4409 H   0  0  0  0  0  0  0  0  0  0  0  0
    2.6488   -4.6387    1.4199 H   0  0  0  0  0  0  0  0  0  0  0  0
    2.7752   -4.1442    4.3089 H   0  0  0  0  0  0  0  0  0  0  0  0
    0.4838   -3.9603    2.4426 H   0  0  0  0  0  0  0  0  0  0  0  0
    1.2072   -2.6090    3.3452 H   0  0  0  0  0  0  0  0  0  0  0  0
    0.6633   -3.7525    5.4882 H   0  0  0  0  0  0  0  0  0  0  0  0
   -0.1339   -5.0467    4.5864 H   0  0  0  0  0  0  0  0  0  0  0  0
   -1.7120   -3.3633    3.5824 H   0  0  0  0  0  0  0  0  0  0  0  0
   -0.9003   -2.0731    4.4635 H   0  0  0  0  0  0  0  0  0  0  0  0
   -1.4297   -3.2078    6.6242 H   0  0  0  0  0  0  0  0  0  0  0  0
   -2.2799   -4.4927    5.7229 H   0  0  0  0  0  0  0  0  0  0  0  0
   -3.2517   -4.2509    7.6895 H   0  0  0  0  0  0  0  0  0  0  0  0
   -4.7987   -3.7967    8.1683 H   0  0  0  0  0  0  0  0  0  0  0  0
   -5.2482   -1.4169    5.8335 H   0  0  0  0  0  0  0  0  0  0  0  0
   -5.9477   -2.2842    7.1048 H   0  0  0  0  0  0  0  0  0  0  0  0
  1  2  1  0  0  0  0
  1 26  1  0  0  0  0
  1 27  1  0  0  0  0
  1 28  1  0  0  0  0
  2  3  1  0  0  0  0
  3  4  2  0  0  0  0
  3  8  1  0  0  0  0
  4  5  1  0  0  0  0
  4 29  1  0  0  0  0
  5  6  2  0  0  0  0
  5 16  1  0  0  0  0
  6  7  1  0  0  0  0
  6  9  1  0  0  0  0
  7  8  2  0  0  0  0
  7 30  1  0  0  0  0
  8 31  1  0  0  0  0
  9 10  1  0  0  0  0
 10 11  1  0  0  0  0
 10 32  1  0  0  0  0
 10 33  1  0  0  0  0
 11 12  1  0  0  0  0
 11 34  1  0  0  0  0
 11 35  1  0  0  0  0
 12 13  2  0  0  0  0
 13 14  1  0  0  0  0
 13 15  1  0  0  0  0
 14 36  1  0  0  0  0
 14 37  1  0  0  0  0
 15 38  1  0  0  0  0
 15 39  1  0  0  0  0
 16 17  1  0  0  0  0
 16 40  1  0  0  0  0
 16 41  1  0  0  0  0
 17 18  1  0  0  0  0
 17 42  1  0  0  0  0
 18 19  1  0  0  0  0
 18 43  1  0  0  0  0
 18 44  1  0  0  0  0
 19 20  1  0  0  0  0
 19 45  1  0  0  0  0
 19 46  1  0  0  0  0
 20 21  1  0  0  0  0
 20 47  1  0  0  0  0
 20 48  1  0  0  0  0
 21 22  1  0  0  0  0
 21 49  1  0  0  0  0
 21 50  1  0  0  0  0
 22 23  2  0  0  0  0
 23 24  1  0  0  0  0
 23 25  1  0  0  0  0
 24 51  1  0  0  0  0
 24 52  1  0  0  0  0
 25 53  1  0  0  0  0
 25 54  1  0  0  0  0
M  END
$$$$
Target_lig_184
 OpenBabel04172516553D

 63 65  0  0  0  0  0  0  0  0999 V2000
   -2.3109    0.7838    0.8378 C   0  0  0  0  0  0  0  0  0  0  0  0
   -2.4086    0.8816   -0.5433 C   0  0  0  0  0  0  0  0  0  0  0  0
   -1.3375    0.5165   -1.3622 C   0  0  0  0  0  0  0  0  0  0  0  0
   -0.1581    0.0416   -0.7605 C   0  0  0  0  0  0  0  0  0  0  0  0
   -0.0412   -0.0719    0.6233 C   0  0  0  0  0  0  0  0  0  0  0  0
   -1.1379    0.3118    1.4285 C   0  0  0  0  0  0  0  0  0  0  0  0
    1.2346   -0.5987    0.9952 C   0  0  0  0  0  0  0  0  0  0  0  0
    2.0479   -0.8851   -0.0814 C   0  0  0  0  0  0  0  0  0  0  0  0
    1.2811   -0.4598   -1.5509 S   0  0  0  0  0  0  0  0  0  0  0  0
    3.3898   -1.4700   -0.0640 C   0  0  0  0  0  0  0  0  0  0  0  0
    4.2750   -1.1982    0.9860 C   0  0  0  0  0  0  0  0  0  0  0  0
    5.5732   -1.7578    1.0436 C   0  0  0  0  0  0  0  0  0  0  0  0
    5.9946   -2.6027    0.0035 C   0  0  0  0  0  0  0  0  0  0  0  0
    5.0692   -2.9277   -1.0033 C   0  0  0  0  0  0  0  0  0  0  0  0
    3.8015   -2.3616   -1.0463 C   0  0  0  0  0  0  0  0  0  0  0  0
    7.2984   -3.0502   -0.0084 O   0  0  0  0  0  0  0  0  0  0  0  0
    7.6062   -4.0387   -1.0141 C   0  0  0  0  0  0  0  0  0  0  0  0
    9.1011   -4.1794   -1.2889 C   0  0  0  0  0  0  0  0  0  0  0  0
    9.8151   -4.6945   -0.1253 N   0  0  0  0  0  0  0  0  0  0  0  0
   10.3138   -3.8361    0.6847 C   0  0  0  0  0  0  0  0  0  0  0  0
   10.2449   -2.4885    0.6450 N   0  0  0  0  0  0  0  0  0  0  0  0
   11.0463   -4.2730    1.7279 N   0  0  0  0  0  0  0  0  0  0  0  0
    6.4120   -1.4179    2.2635 C   0  0  0  0  0  0  0  0  0  0  0  0
    7.2264   -0.2029    2.1493 N   0  0  0  0  0  0  0  0  0  0  0  0
    6.4295    1.0130    1.9698 C   0  0  0  0  0  0  0  0  0  0  0  0
    7.3416    2.2355    1.9484 C   0  0  0  0  0  0  0  0  0  0  0  0
    6.5511    3.5045    1.6211 C   0  0  0  0  0  0  0  0  0  0  0  0
    7.4884    4.7058    1.5668 C   0  0  0  0  0  0  0  0  0  0  0  0
    6.7198    5.8955    1.2141 N   0  0  0  0  0  0  0  0  0  0  0  0
    7.3694    6.9957    1.1049 C   0  0  0  0  0  0  0  0  0  0  0  0
    8.6866    7.2281    1.2925 N   0  0  0  0  0  0  0  0  0  0  0  0
    6.7186    8.1121    0.7146 N   0  0  0  0  0  0  0  0  0  0  0  0
   -3.1510    1.0730    1.4645 H   0  0  0  0  0  0  0  0  0  0  0  0
   -3.3261    1.2483   -0.9962 H   0  0  0  0  0  0  0  0  0  0  0  0
   -1.4161    0.5925   -2.4432 H   0  0  0  0  0  0  0  0  0  0  0  0
   -1.0702    0.2296    2.5095 H   0  0  0  0  0  0  0  0  0  0  0  0
    1.5272   -0.7805    2.0212 H   0  0  0  0  0  0  0  0  0  0  0  0
    3.9621   -0.5194    1.7788 H   0  0  0  0  0  0  0  0  0  0  0  0
    5.2885   -3.6325   -1.7962 H   0  0  0  0  0  0  0  0  0  0  0  0
    3.1421   -2.6457   -1.8626 H   0  0  0  0  0  0  0  0  0  0  0  0
    7.2030   -3.7386   -1.9849 H   0  0  0  0  0  0  0  0  0  0  0  0
    7.1789   -5.0009   -0.7071 H   0  0  0  0  0  0  0  0  0  0  0  0
    9.5150   -3.2339   -1.6589 H   0  0  0  0  0  0  0  0  0  0  0  0
    9.2333   -4.8991   -2.1054 H   0  0  0  0  0  0  0  0  0  0  0  0
    9.4521   -2.1200    0.1307 H   0  0  0  0  0  0  0  0  0  0  0  0
   10.3891   -2.0027    1.5167 H   0  0  0  0  0  0  0  0  0  0  0  0
   10.9653   -5.2813    1.7988 H   0  0  0  0  0  0  0  0  0  0  0  0
   10.8465   -3.8241    2.6082 H   0  0  0  0  0  0  0  0  0  0  0  0
    7.0693   -2.2615    2.5047 H   0  0  0  0  0  0  0  0  0  0  0  0
    5.7559   -1.3289    3.1419 H   0  0  0  0  0  0  0  0  0  0  0  0
    7.8545   -0.3125    1.3568 H   0  0  0  0  0  0  0  0  0  0  0  0
    5.6987    1.1222    2.7815 H   0  0  0  0  0  0  0  0  0  0  0  0
    5.8892    0.9781    1.0194 H   0  0  0  0  0  0  0  0  0  0  0  0
    8.1272    2.0978    1.1947 H   0  0  0  0  0  0  0  0  0  0  0  0
    7.8391    2.3494    2.9196 H   0  0  0  0  0  0  0  0  0  0  0  0
    5.7708    3.6711    2.3742 H   0  0  0  0  0  0  0  0  0  0  0  0
    6.0388    3.3899    0.6572 H   0  0  0  0  0  0  0  0  0  0  0  0
    8.2653    4.5200    0.8153 H   0  0  0  0  0  0  0  0  0  0  0  0
    7.9632    4.8319    2.5459 H   0  0  0  0  0  0  0  0  0  0  0  0
    9.2124    6.5020    1.7610 H   0  0  0  0  0  0  0  0  0  0  0  0
    8.9585    8.1583    1.5684 H   0  0  0  0  0  0  0  0  0  0  0  0
    5.7147    7.9674    0.7152 H   0  0  0  0  0  0  0  0  0  0  0  0
    6.9894    8.9780    1.1518 H   0  0  0  0  0  0  0  0  0  0  0  0
  1  2  2  0  0  0  0
  1  6  1  0  0  0  0
  1 33  1  0  0  0  0
  2  3  1  0  0  0  0
  2 34  1  0  0  0  0
  3  4  2  0  0  0  0
  3 35  1  0  0  0  0
  4  5  1  0  0  0  0
  4  9  1  0  0  0  0
  5  6  2  0  0  0  0
  5  7  1  0  0  0  0
  6 36  1  0  0  0  0
  7  8  2  0  0  0  0
  7 37  1  0  0  0  0
  8  9  1  0  0  0  0
  8 10  1  0  0  0  0
 10 11  2  0  0  0  0
 10 15  1  0  0  0  0
 11 12  1  0  0  0  0
 11 38  1  0  0  0  0
 12 13  2  0  0  0  0
 12 23  1  0  0  0  0
 13 14  1  0  0  0  0
 13 16  1  0  0  0  0
 14 15  2  0  0  0  0
 14 39  1  0  0  0  0
 15 40  1  0  0  0  0
 16 17  1  0  0  0  0
 17 18  1  0  0  0  0
 17 41  1  0  0  0  0
 17 42  1  0  0  0  0
 18 19  1  0  0  0  0
 18 43  1  0  0  0  0
 18 44  1  0  0  0  0
 19 20  2  0  0  0  0
 20 21  1  0  0  0  0
 20 22  1  0  0  0  0
 21 45  1  0  0  0  0
 21 46  1  0  0  0  0
 22 47  1  0  0  0  0
 22 48  1  0  0  0  0
 23 24  1  0  0  0  0
 23 49  1  0  0  0  0
 23 50  1  0  0  0  0
 24 25  1  0  0  0  0
 24 51  1  0  0  0  0
 25 26  1  0  0  0  0
 25 52  1  0  0  0  0
 25 53  1  0  0  0  0
 26 27  1  0  0  0  0
 26 54  1  0  0  0  0
 26 55  1  0  0  0  0
 27 28  1  0  0  0  0
 27 56  1  0  0  0  0
 27 57  1  0  0  0  0
 28 29  1  0  0  0  0
 28 58  1  0  0  0  0
 28 59  1  0  0  0  0
 29 30  2  0  0  0  0
 30 31  1  0  0  0  0
 30 32  1  0  0  0  0
 31 60  1  0  0  0  0
 31 61  1  0  0  0  0
 32 62  1  0  0  0  0
 32 63  1  0  0  0  0
M  END
$$$$
Target_lig_185
 OpenBabel04172516553D

 63 65  0  0  0  0  0  0  0  0999 V2000
    2.2350   -0.8487    0.1598 C   0  0  0  0  0  0  0  0  0  0  0  0
    2.0827   -0.1738   -1.0545 C   0  0  0  0  0  0  0  0  0  0  0  0
    0.8259    0.2474   -1.5020 C   0  0  0  0  0  0  0  0  0  0  0  0
   -0.2517   -0.0500   -0.6760 C   0  0  0  0  0  0  0  0  0  0  0  0
   -0.1388   -0.7105    0.5414 C   0  0  0  0  0  0  0  0  0  0  0  0
    1.1290   -1.1228    0.9769 C   0  0  0  0  0  0  0  0  0  0  0  0
   -1.4547   -0.8156    1.0436 C   0  0  0  0  0  0  0  0  0  0  0  0
   -2.2922   -0.2661    0.0914 C   0  0  0  0  0  0  0  0  0  0  0  0
   -1.5554    0.2321   -0.9461 O   0  0  0  0  0  0  0  0  0  0  0  0
   -3.7417   -0.1937   -0.0362 C   0  0  0  0  0  0  0  0  0  0  0  0
   -4.3746    0.3927   -1.1345 C   0  0  0  0  0  0  0  0  0  0  0  0
   -5.7814    0.3565   -1.2963 C   0  0  0  0  0  0  0  0  0  0  0  0
   -6.5594   -0.2812   -0.3125 C   0  0  0  0  0  0  0  0  0  0  0  0
   -5.9153   -0.8388    0.8016 C   0  0  0  0  0  0  0  0  0  0  0  0
   -4.5328   -0.7962    0.9369 C   0  0  0  0  0  0  0  0  0  0  0  0
   -7.9244   -0.3627   -0.4921 O   0  0  0  0  0  0  0  0  0  0  0  0
   -8.6283   -1.0183    0.5779 C   0  0  0  0  0  0  0  0  0  0  0  0
  -10.1344   -1.0953    0.3543 C   0  0  0  0  0  0  0  0  0  0  0  0
  -10.6982    0.2497    0.3555 N   0  0  0  0  0  0  0  0  0  0  0  0
  -11.9713    0.3678    0.2831 C   0  0  0  0  0  0  0  0  0  0  0  0
  -12.9192   -0.5939    0.2375 N   0  0  0  0  0  0  0  0  0  0  0  0
  -12.4955    1.6030    0.1686 N   0  0  0  0  0  0  0  0  0  0  0  0
   -6.3558    0.9921   -2.5477 C   0  0  0  0  0  0  0  0  0  0  0  0
   -6.6735    2.4217   -2.4416 N   0  0  0  0  0  0  0  0  0  0  0  0
   -5.5098    3.2627   -2.1647 C   0  0  0  0  0  0  0  0  0  0  0  0
   -5.9128    4.7348   -2.1702 C   0  0  0  0  0  0  0  0  0  0  0  0
   -4.7307    5.6296   -1.7856 C   0  0  0  0  0  0  0  0  0  0  0  0
   -5.1632    7.0906   -1.7627 C   0  0  0  0  0  0  0  0  0  0  0  0
   -4.0303    7.9185   -1.3572 N   0  0  0  0  0  0  0  0  0  0  0  0
   -4.2300    9.1815   -1.2782 C   0  0  0  0  0  0  0  0  0  0  0  0
   -5.3614    9.8784   -1.5248 N   0  0  0  0  0  0  0  0  0  0  0  0
   -3.2337    9.9844   -0.8507 N   0  0  0  0  0  0  0  0  0  0  0  0
    3.2214   -1.1737    0.4781 H   0  0  0  0  0  0  0  0  0  0  0  0
    2.9596    0.0245   -1.6685 H   0  0  0  0  0  0  0  0  0  0  0  0
    0.6884    0.7629   -2.4445 H   0  0  0  0  0  0  0  0  0  0  0  0
    1.2497   -1.6557    1.9154 H   0  0  0  0  0  0  0  0  0  0  0  0
   -1.7582   -1.2874    1.9668 H   0  0  0  0  0  0  0  0  0  0  0  0
   -3.7685    0.8842   -1.8940 H   0  0  0  0  0  0  0  0  0  0  0  0
   -6.4514   -1.3462    1.5946 H   0  0  0  0  0  0  0  0  0  0  0  0
   -4.0934   -1.2709    1.8097 H   0  0  0  0  0  0  0  0  0  0  0  0
   -8.4512   -0.4809    1.5187 H   0  0  0  0  0  0  0  0  0  0  0  0
   -8.2713   -2.0537    0.6580 H   0  0  0  0  0  0  0  0  0  0  0  0
  -10.5563   -1.6858    1.1785 H   0  0  0  0  0  0  0  0  0  0  0  0
  -10.3465   -1.5986   -0.5942 H   0  0  0  0  0  0  0  0  0  0  0  0
  -12.6199   -1.5239    0.4936 H   0  0  0  0  0  0  0  0  0  0  0  0
  -13.8192   -0.3534    0.6228 H   0  0  0  0  0  0  0  0  0  0  0  0
  -11.8171    2.3298    0.3605 H   0  0  0  0  0  0  0  0  0  0  0  0
  -13.4185    1.7805    0.5351 H   0  0  0  0  0  0  0  0  0  0  0  0
   -7.2622    0.4559   -2.8517 H   0  0  0  0  0  0  0  0  0  0  0  0
   -5.6568    0.8417   -3.3824 H   0  0  0  0  0  0  0  0  0  0  0  0
   -7.3742    2.5374   -1.7100 H   0  0  0  0  0  0  0  0  0  0  0  0
   -4.7314    3.1025   -2.9203 H   0  0  0  0  0  0  0  0  0  0  0  0
   -5.0907    3.0288   -1.1805 H   0  0  0  0  0  0  0  0  0  0  0  0
   -6.7331    4.8986   -1.4606 H   0  0  0  0  0  0  0  0  0  0  0  0
   -6.2808    5.0200   -3.1640 H   0  0  0  0  0  0  0  0  0  0  0  0
   -3.9063    5.4945   -2.4964 H   0  0  0  0  0  0  0  0  0  0  0  0
   -4.3470    5.3412   -0.7990 H   0  0  0  0  0  0  0  0  0  0  0  0
   -5.9900    7.2102   -1.0523 H   0  0  0  0  0  0  0  0  0  0  0  0
   -5.5090    7.3765   -2.7629 H   0  0  0  0  0  0  0  0  0  0  0  0
   -6.0887    9.3899   -2.0322 H   0  0  0  0  0  0  0  0  0  0  0  0
   -5.2502   10.8341   -1.8272 H   0  0  0  0  0  0  0  0  0  0  0  0
   -2.3544    9.4795   -0.8056 H   0  0  0  0  0  0  0  0  0  0  0  0
   -3.1436   10.8820   -1.3000 H   0  0  0  0  0  0  0  0  0  0  0  0
  1  2  2  0  0  0  0
  1  6  1  0  0  0  0
  1 33  1  0  0  0  0
  2  3  1  0  0  0  0
  2 34  1  0  0  0  0
  3  4  2  0  0  0  0
  3 35  1  0  0  0  0
  4  5  1  0  0  0  0
  4  9  1  0  0  0  0
  5  6  2  0  0  0  0
  5  7  1  0  0  0  0
  6 36  1  0  0  0  0
  7  8  2  0  0  0  0
  7 37  1  0  0  0  0
  8  9  1  0  0  0  0
  8 10  1  0  0  0  0
 10 11  2  0  0  0  0
 10 15  1  0  0  0  0
 11 12  1  0  0  0  0
 11 38  1  0  0  0  0
 12 13  2  0  0  0  0
 12 23  1  0  0  0  0
 13 14  1  0  0  0  0
 13 16  1  0  0  0  0
 14 15  2  0  0  0  0
 14 39  1  0  0  0  0
 15 40  1  0  0  0  0
 16 17  1  0  0  0  0
 17 18  1  0  0  0  0
 17 41  1  0  0  0  0
 17 42  1  0  0  0  0
 18 19  1  0  0  0  0
 18 43  1  0  0  0  0
 18 44  1  0  0  0  0
 19 20  2  0  0  0  0
 20 21  1  0  0  0  0
 20 22  1  0  0  0  0
 21 45  1  0  0  0  0
 21 46  1  0  0  0  0
 22 47  1  0  0  0  0
 22 48  1  0  0  0  0
 23 24  1  0  0  0  0
 23 49  1  0  0  0  0
 23 50  1  0  0  0  0
 24 25  1  0  0  0  0
 24 51  1  0  0  0  0
 25 26  1  0  0  0  0
 25 52  1  0  0  0  0
 25 53  1  0  0  0  0
 26 27  1  0  0  0  0
 26 54  1  0  0  0  0
 26 55  1  0  0  0  0
 27 28  1  0  0  0  0
 27 56  1  0  0  0  0
 27 57  1  0  0  0  0
 28 29  1  0  0  0  0
 28 58  1  0  0  0  0
 28 59  1  0  0  0  0
 29 30  2  0  0  0  0
 30 31  1  0  0  0  0
 30 32  1  0  0  0  0
 31 60  1  0  0  0  0
 31 61  1  0  0  0  0
 32 62  1  0  0  0  0
 32 63  1  0  0  0  0
M  END
$$$$
Target_lig_186
 OpenBabel04172516553D

 61 63  0  0  0  0  0  0  0  0999 V2000
   -2.2963    0.7931    0.8152 C   0  0  0  0  0  0  0  0  0  0  0  0
   -2.3911    0.8917   -0.5663 C   0  0  0  0  0  0  0  0  0  0  0  0
   -1.3237    0.5123   -1.3798 C   0  0  0  0  0  0  0  0  0  0  0  0
   -0.1496    0.0206   -0.7765 C   0  0  0  0  0  0  0  0  0  0  0  0
   -0.0360   -0.0910    0.6076 C   0  0  0  0  0  0  0  0  0  0  0  0
   -1.1288    0.3072    1.4119 C   0  0  0  0  0  0  0  0  0  0  0  0
    1.2375   -0.6254    0.9813 C   0  0  0  0  0  0  0  0  0  0  0  0
    2.0516   -0.9232   -0.0944 C   0  0  0  0  0  0  0  0  0  0  0  0
    1.2848   -0.5047   -1.5654 S   0  0  0  0  0  0  0  0  0  0  0  0
    3.4028   -1.4966   -0.0684 C   0  0  0  0  0  0  0  0  0  0  0  0
    4.2613   -1.2147    1.0025 C   0  0  0  0  0  0  0  0  0  0  0  0
    5.5644   -1.7503    1.0885 C   0  0  0  0  0  0  0  0  0  0  0  0
    6.0271   -2.5634    0.0427 C   0  0  0  0  0  0  0  0  0  0  0  0
    5.1476   -2.8986   -0.9967 C   0  0  0  0  0  0  0  0  0  0  0  0
    3.8580   -2.3681   -1.0563 C   0  0  0  0  0  0  0  0  0  0  0  0
    7.3306   -3.0013    0.0896 O   0  0  0  0  0  0  0  0  0  0  0  0
    7.8535   -3.4502   -1.1682 C   0  0  0  0  0  0  0  0  0  0  0  0
    9.3726   -3.5606   -1.1309 C   0  0  0  0  0  0  0  0  0  0  0  0
    9.8417   -4.6576   -0.1822 C   0  0  0  0  0  0  0  0  0  0  0  0
   11.2968   -4.7658   -0.2286 N   0  0  0  0  0  0  0  0  0  0  0  0
    6.3878   -1.4082    2.3122 C   0  0  0  0  0  0  0  0  0  0  0  0
    7.2103   -0.2020    2.1937 N   0  0  0  0  0  0  0  0  0  0  0  0
    6.4295    1.0156    1.9826 C   0  0  0  0  0  0  0  0  0  0  0  0
    7.3540    2.2286    1.9690 C   0  0  0  0  0  0  0  0  0  0  0  0
    6.5751    3.5062    1.6494 C   0  0  0  0  0  0  0  0  0  0  0  0
    7.5197    4.7006    1.6044 C   0  0  0  0  0  0  0  0  0  0  0  0
    6.7603    5.8956    1.2478 N   0  0  0  0  0  0  0  0  0  0  0  0
    7.4125    6.9952    1.1569 C   0  0  0  0  0  0  0  0  0  0  0  0
    8.7290    7.2208    1.3615 N   0  0  0  0  0  0  0  0  0  0  0  0
    6.7698    8.1150    0.7660 N   0  0  0  0  0  0  0  0  0  0  0  0
   -3.1322    1.0922    1.4420 H   0  0  0  0  0  0  0  0  0  0  0  0
   -3.3049    1.2680   -1.0196 H   0  0  0  0  0  0  0  0  0  0  0  0
   -1.3984    0.5892   -2.4630 H   0  0  0  0  0  0  0  0  0  0  0  0
   -1.0619    0.2311    2.4919 H   0  0  0  0  0  0  0  0  0  0  0  0
    1.5291   -0.8033    2.0079 H   0  0  0  0  0  0  0  0  0  0  0  0
    3.9268   -0.5409    1.7905 H   0  0  0  0  0  0  0  0  0  0  0  0
    5.4321   -3.5826   -1.7896 H   0  0  0  0  0  0  0  0  0  0  0  0
    3.2184   -2.6587   -1.8858 H   0  0  0  0  0  0  0  0  0  0  0  0
    7.5998   -2.7321   -1.9589 H   0  0  0  0  0  0  0  0  0  0  0  0
    7.4281   -4.4316   -1.4116 H   0  0  0  0  0  0  0  0  0  0  0  0
    9.8023   -2.5986   -0.8272 H   0  0  0  0  0  0  0  0  0  0  0  0
    9.7251   -3.7769   -2.1478 H   0  0  0  0  0  0  0  0  0  0  0  0
    9.4016   -5.6199   -0.4674 H   0  0  0  0  0  0  0  0  0  0  0  0
    9.5287   -4.4355    0.8422 H   0  0  0  0  0  0  0  0  0  0  0  0
   11.5957   -5.0420   -1.1625 H   0  0  0  0  0  0  0  0  0  0  0  0
   11.5994   -5.5085    0.4009 H   0  0  0  0  0  0  0  0  0  0  0  0
    7.0386   -2.2543    2.5621 H   0  0  0  0  0  0  0  0  0  0  0  0
    5.7233   -1.3107    3.1821 H   0  0  0  0  0  0  0  0  0  0  0  0
    7.8644   -0.3355    1.4235 H   0  0  0  0  0  0  0  0  0  0  0  0
    5.6868    1.1386    2.7802 H   0  0  0  0  0  0  0  0  0  0  0  0
    5.9040    0.9765    1.0232 H   0  0  0  0  0  0  0  0  0  0  0  0
    8.1401    2.0871    1.2164 H   0  0  0  0  0  0  0  0  0  0  0  0
    7.8508    2.3319    2.9419 H   0  0  0  0  0  0  0  0  0  0  0  0
    5.7949    3.6727    2.4028 H   0  0  0  0  0  0  0  0  0  0  0  0
    6.0649    3.4040    0.6831 H   0  0  0  0  0  0  0  0  0  0  0  0
    8.2999    4.5125    0.8567 H   0  0  0  0  0  0  0  0  0  0  0  0
    7.9902    4.8203    2.5874 H   0  0  0  0  0  0  0  0  0  0  0  0
    9.2375    6.4849    1.8341 H   0  0  0  0  0  0  0  0  0  0  0  0
    8.9963    8.1427    1.6653 H   0  0  0  0  0  0  0  0  0  0  0  0
    5.7651    7.9740    0.7562 H   0  0  0  0  0  0  0  0  0  0  0  0
    7.0404    8.9784    1.2087 H   0  0  0  0  0  0  0  0  0  0  0  0
  1  2  2  0  0  0  0
  1  6  1  0  0  0  0
  1 31  1  0  0  0  0
  2  3  1  0  0  0  0
  2 32  1  0  0  0  0
  3  4  2  0  0  0  0
  3 33  1  0  0  0  0
  4  5  1  0  0  0  0
  4  9  1  0  0  0  0
  5  6  2  0  0  0  0
  5  7  1  0  0  0  0
  6 34  1  0  0  0  0
  7  8  2  0  0  0  0
  7 35  1  0  0  0  0
  8  9  1  0  0  0  0
  8 10  1  0  0  0  0
 10 11  2  0  0  0  0
 10 15  1  0  0  0  0
 11 12  1  0  0  0  0
 11 36  1  0  0  0  0
 12 13  2  0  0  0  0
 12 21  1  0  0  0  0
 13 14  1  0  0  0  0
 13 16  1  0  0  0  0
 14 15  2  0  0  0  0
 14 37  1  0  0  0  0
 15 38  1  0  0  0  0
 16 17  1  0  0  0  0
 17 18  1  0  0  0  0
 17 39  1  0  0  0  0
 17 40  1  0  0  0  0
 18 19  1  0  0  0  0
 18 41  1  0  0  0  0
 18 42  1  0  0  0  0
 19 20  1  0  0  0  0
 19 43  1  0  0  0  0
 19 44  1  0  0  0  0
 20 45  1  0  0  0  0
 20 46  1  0  0  0  0
 21 22  1  0  0  0  0
 21 47  1  0  0  0  0
 21 48  1  0  0  0  0
 22 23  1  0  0  0  0
 22 49  1  0  0  0  0
 23 24  1  0  0  0  0
 23 50  1  0  0  0  0
 23 51  1  0  0  0  0
 24 25  1  0  0  0  0
 24 52  1  0  0  0  0
 24 53  1  0  0  0  0
 25 26  1  0  0  0  0
 25 54  1  0  0  0  0
 25 55  1  0  0  0  0
 26 27  1  0  0  0  0
 26 56  1  0  0  0  0
 26 57  1  0  0  0  0
 27 28  2  0  0  0  0
 28 29  1  0  0  0  0
 28 30  1  0  0  0  0
 29 58  1  0  0  0  0
 29 59  1  0  0  0  0
 30 60  1  0  0  0  0
 30 61  1  0  0  0  0
M  END
$$$$
Target_lig_187
 OpenBabel04172516553D

 63 66  0  0  0  0  0  0  0  0999 V2000
   -8.4642   -0.5850    6.0377 C   0  0  0  0  0  0  0  0  0  0  0  0
   -7.5235    0.5668    5.6205 C   0  0  0  0  0  0  0  0  0  0  0  0
   -7.3351    0.6881    4.1552 N   0  0  0  0  0  0  0  0  0  0  0  0
   -8.6729    0.8171    3.5432 C   0  0  0  0  0  0  0  0  0  0  0  0
   -9.6571   -0.3094    3.9450 C   0  0  0  0  0  0  0  0  0  0  0  0
   -9.7866   -0.4865    5.4006 N   0  0  0  0  0  0  0  0  0  0  0  0
   -6.6357   -0.4640    3.5587 C   0  0  0  0  0  0  0  0  0  0  0  0
   -5.2386   -0.6924    4.1355 C   0  0  0  0  0  0  0  0  0  0  0  0
   -4.6225   -1.8723    3.5154 N   0  0  0  0  0  0  0  0  0  0  0  0
   -3.2753   -2.0455    4.0856 C   0  0  0  0  0  0  0  0  0  0  0  0
   -3.2306   -2.2988    5.5684 C   0  0  0  0  0  0  0  0  0  0  0  0
   -3.2781   -3.5527    6.2356 C   0  0  0  0  0  0  0  0  0  0  0  0
   -3.1616   -3.5509    7.6261 C   0  0  0  0  0  0  0  0  0  0  0  0
   -3.0298   -2.4107    8.3869 C   0  0  0  0  0  0  0  0  0  0  0  0
   -2.9850   -1.1536    7.7577 C   0  0  0  0  0  0  0  0  0  0  0  0
   -3.1227   -1.1409    6.3771 C   0  0  0  0  0  0  0  0  0  0  0  0
   -2.6615    0.0787    8.4901 C   0  0  0  0  0  0  0  0  0  0  0  0
   -2.9845    0.2204    9.8436 C   0  0  0  0  0  0  0  0  0  0  0  0
   -2.4984    1.3117   10.5806 C   0  0  0  0  0  0  0  0  0  0  0  0
   -1.7178    2.2629    9.9348 C   0  0  0  0  0  0  0  0  0  0  0  0
   -1.4047    2.1927    8.5796 C   0  0  0  0  0  0  0  0  0  0  0  0
   -1.9012    1.0955    7.8673 C   0  0  0  0  0  0  0  0  0  0  0  0
   -1.3562    3.1993   10.8813 N   0  0  0  0  0  0  0  0  0  0  0  0
   -1.8800    2.8578   12.1003 C   0  0  0  0  0  0  0  0  0  0  0  0
   -2.5879    1.6870   11.9486 C   0  0  0  0  0  0  0  0  0  0  0  0
   -3.4224   -4.7661    5.5800 O   0  0  0  0  0  0  0  0  0  0  0  0
   -4.0441   -5.7856    6.4177 C   0  0  0  0  0  0  0  0  0  0  0  0
   -4.7537   -6.8783    5.6177 C   0  0  0  0  0  0  0  0  0  0  0  0
   -3.7299   -7.5802    4.7432 C   0  0  0  0  0  0  0  0  0  0  0  0
   -4.3434   -8.6313    3.9472 N   0  0  0  0  0  0  0  0  0  0  0  0
   -8.5966   -0.5589    7.1250 H   0  0  0  0  0  0  0  0  0  0  0  0
   -8.0066   -1.5539    5.8035 H   0  0  0  0  0  0  0  0  0  0  0  0
   -6.5660    0.4779    6.1439 H   0  0  0  0  0  0  0  0  0  0  0  0
   -7.9424    1.5138    5.9882 H   0  0  0  0  0  0  0  0  0  0  0  0
   -8.5802    0.8591    2.4509 H   0  0  0  0  0  0  0  0  0  0  0  0
   -9.0933    1.7856    3.8424 H   0  0  0  0  0  0  0  0  0  0  0  0
   -9.3498   -1.2582    3.4896 H   0  0  0  0  0  0  0  0  0  0  0  0
  -10.6442   -0.0757    3.5328 H   0  0  0  0  0  0  0  0  0  0  0  0
  -10.3205   -1.3319    5.5948 H   0  0  0  0  0  0  0  0  0  0  0  0
   -6.5271   -0.2883    2.4809 H   0  0  0  0  0  0  0  0  0  0  0  0
   -7.2048   -1.3942    3.6670 H   0  0  0  0  0  0  0  0  0  0  0  0
   -5.3410   -0.8796    5.2007 H   0  0  0  0  0  0  0  0  0  0  0  0
   -4.6274    0.2052    3.9881 H   0  0  0  0  0  0  0  0  0  0  0  0
   -4.5287   -1.6945    2.5078 H   0  0  0  0  0  0  0  0  0  0  0  0
   -2.7525   -1.1003    3.8692 H   0  0  0  0  0  0  0  0  0  0  0  0
   -2.7269   -2.8265    3.5521 H   0  0  0  0  0  0  0  0  0  0  0  0
   -3.1610   -4.5081    8.1631 H   0  0  0  0  0  0  0  0  0  0  0  0
   -2.9095   -2.5054    9.4537 H   0  0  0  0  0  0  0  0  0  0  0  0
   -3.1382   -0.1563    5.8860 H   0  0  0  0  0  0  0  0  0  0  0  0
   -3.5624   -0.5490   10.3531 H   0  0  0  0  0  0  0  0  0  0  0  0
   -0.7730    2.9287    8.0919 H   0  0  0  0  0  0  0  0  0  0  0  0
   -1.6237    1.0151    6.8227 H   0  0  0  0  0  0  0  0  0  0  0  0
   -0.7849    4.0084   10.6976 H   0  0  0  0  0  0  0  0  0  0  0  0
   -1.6999    3.4706   12.9725 H   0  0  0  0  0  0  0  0  0  0  0  0
   -3.1048    1.1518   12.7295 H   0  0  0  0  0  0  0  0  0  0  0  0
   -4.8178   -5.3282    7.0470 H   0  0  0  0  0  0  0  0  0  0  0  0
   -3.2850   -6.2937    7.0426 H   0  0  0  0  0  0  0  0  0  0  0  0
   -5.5549   -6.4271    5.0287 H   0  0  0  0  0  0  0  0  0  0  0  0
   -5.2249   -7.5788    6.3239 H   0  0  0  0  0  0  0  0  0  0  0  0
   -2.9408   -8.0183    5.3668 H   0  0  0  0  0  0  0  0  0  0  0  0
   -3.2523   -6.8562    4.0756 H   0  0  0  0  0  0  0  0  0  0  0  0
   -4.7400   -9.3403    4.5606 H   0  0  0  0  0  0  0  0  0  0  0  0
   -3.6150   -9.0981    3.4074 H   0  0  0  0  0  0  0  0  0  0  0  0
  1  2  1  0  0  0  0
  1  6  1  0  0  0  0
  1 31  1  0  0  0  0
  1 32  1  0  0  0  0
  2  3  1  0  0  0  0
  2 33  1  0  0  0  0
  2 34  1  0  0  0  0
  3  4  1  0  0  0  0
  3  7  1  0  0  0  0
  4  5  1  0  0  0  0
  4 35  1  0  0  0  0
  4 36  1  0  0  0  0
  5  6  1  0  0  0  0
  5 37  1  0  0  0  0
  5 38  1  0  0  0  0
  6 39  1  0  0  0  0
  7  8  1  0  0  0  0
  7 40  1  0  0  0  0
  7 41  1  0  0  0  0
  8  9  1  0  0  0  0
  8 42  1  0  0  0  0
  8 43  1  0  0  0  0
  9 10  1  0  0  0  0
  9 44  1  0  0  0  0
 10 11  1  0  0  0  0
 10 45  1  0  0  0  0
 10 46  1  0  0  0  0
 11 12  2  0  0  0  0
 11 16  1  0  0  0  0
 12 13  1  0  0  0  0
 12 26  1  0  0  0  0
 13 14  2  0  0  0  0
 13 47  1  0  0  0  0
 14 15  1  0  0  0  0
 14 48  1  0  0  0  0
 15 16  2  0  0  0  0
 15 17  1  0  0  0  0
 16 49  1  0  0  0  0
 17 18  2  0  0  0  0
 17 22  1  0  0  0  0
 18 19  1  0  0  0  0
 18 50  1  0  0  0  0
 19 20  2  0  0  0  0
 19 25  1  0  0  0  0
 20 21  1  0  0  0  0
 20 23  1  0  0  0  0
 21 22  2  0  0  0  0
 21 51  1  0  0  0  0
 22 52  1  0  0  0  0
 23 24  1  0  0  0  0
 23 53  1  0  0  0  0
 24 25  2  0  0  0  0
 24 54  1  0  0  0  0
 25 55  1  0  0  0  0
 26 27  1  0  0  0  0
 27 28  1  0  0  0  0
 27 56  1  0  0  0  0
 27 57  1  0  0  0  0
 28 29  1  0  0  0  0
 28 58  1  0  0  0  0
 28 59  1  0  0  0  0
 29 30  1  0  0  0  0
 29 60  1  0  0  0  0
 29 61  1  0  0  0  0
 30 62  1  0  0  0  0
 30 63  1  0  0  0  0
M  END
$$$$
Target_lig_188
 OpenBabel04172516553D

 56 59  0  0  0  0  0  0  0  0999 V2000
    1.0612   -0.1643    0.1925 C   0  0  0  0  0  0  0  0  0  0  0  0
    2.5768   -0.2074    0.1053 C   0  0  0  0  0  0  0  0  0  0  0  0
    3.0590   -1.0564   -1.4330 S   0  0  0  0  0  0  0  0  0  0  0  0
    4.8349   -1.0449   -1.2681 C   0  0  0  0  0  0  0  0  0  0  0  0
    5.4720   -1.6736   -0.1867 C   0  0  0  0  0  0  0  0  0  0  0  0
    6.8769   -1.7221   -0.0960 C   0  0  0  0  0  0  0  0  0  0  0  0
    7.6284   -1.0867   -1.1063 C   0  0  0  0  0  0  0  0  0  0  0  0
    6.9890   -0.4640   -2.1889 C   0  0  0  0  0  0  0  0  0  0  0  0
    5.6020   -0.4508   -2.2732 C   0  0  0  0  0  0  0  0  0  0  0  0
    9.4074   -1.0502   -1.0726 S   0  0  0  0  0  0  0  0  0  0  0  0
    9.6917   -1.2725    0.6700 C   0  0  0  0  0  0  0  0  0  0  0  0
   10.9042   -0.7947    1.1921 C   0  0  0  0  0  0  0  0  0  0  0  0
   11.2018   -0.9482    2.5428 C   0  0  0  0  0  0  0  0  0  0  0  0
   10.2994   -1.5951    3.3788 C   0  0  0  0  0  0  0  0  0  0  0  0
    9.0876   -2.0619    2.8676 C   0  0  0  0  0  0  0  0  0  0  0  0
    8.7626   -1.9187    1.5092 C   0  0  0  0  0  0  0  0  0  0  0  0
    7.4722   -2.3500    1.0476 N   0  0  0  0  0  0  0  0  0  0  0  0
    7.4285   -3.8487    0.9257 C   0  0  0  0  0  0  0  0  0  0  0  0
    6.9121   -4.5431    2.1995 C   0  0  0  0  0  0  0  0  0  0  0  0
    6.8450   -6.0810    2.0826 C   0  0  0  0  0  0  0  0  0  0  0  0
    8.1184   -6.7733    1.8254 N   0  0  0  0  0  0  0  0  0  0  0  0
    9.1536   -6.5188    2.8478 C   0  0  0  0  0  0  0  0  0  0  0  0
   10.4624   -7.2798    2.5279 C   0  0  0  0  0  0  0  0  0  0  0  0
   10.3101   -8.7457    2.4373 N   0  0  0  0  0  0  0  0  0  0  0  0
    9.2082   -9.0465    1.5006 C   0  0  0  0  0  0  0  0  0  0  0  0
    7.9013   -8.2399    1.7287 C   0  0  0  0  0  0  0  0  0  0  0  0
   10.0960   -9.3425    3.7517 C   0  0  0  0  0  0  0  0  0  0  0  0
    0.7520    0.4062    1.0740 H   0  0  0  0  0  0  0  0  0  0  0  0
    0.6415   -1.1720    0.2866 H   0  0  0  0  0  0  0  0  0  0  0  0
    0.6176    0.3161   -0.6865 H   0  0  0  0  0  0  0  0  0  0  0  0
    2.9750   -0.7367    0.9763 H   0  0  0  0  0  0  0  0  0  0  0  0
    2.9826    0.8094    0.1020 H   0  0  0  0  0  0  0  0  0  0  0  0
    4.8822   -2.1189    0.6073 H   0  0  0  0  0  0  0  0  0  0  0  0
    7.5740    0.0166   -2.9726 H   0  0  0  0  0  0  0  0  0  0  0  0
    5.1217    0.0354   -3.1248 H   0  0  0  0  0  0  0  0  0  0  0  0
   11.6146   -0.2832    0.5462 H   0  0  0  0  0  0  0  0  0  0  0  0
   12.1326   -0.5559    2.9418 H   0  0  0  0  0  0  0  0  0  0  0  0
   10.5224   -1.7156    4.4350 H   0  0  0  0  0  0  0  0  0  0  0  0
    8.3772   -2.5010    3.5572 H   0  0  0  0  0  0  0  0  0  0  0  0
    8.4183   -4.2375    0.6544 H   0  0  0  0  0  0  0  0  0  0  0  0
    6.7579   -4.1466    0.1083 H   0  0  0  0  0  0  0  0  0  0  0  0
    5.9064   -4.1710    2.4311 H   0  0  0  0  0  0  0  0  0  0  0  0
    7.5189   -4.2972    3.0752 H   0  0  0  0  0  0  0  0  0  0  0  0
    6.1539   -6.3161    1.2628 H   0  0  0  0  0  0  0  0  0  0  0  0
    6.3871   -6.4743    2.9998 H   0  0  0  0  0  0  0  0  0  0  0  0
    8.7900   -6.8008    3.8452 H   0  0  0  0  0  0  0  0  0  0  0  0
    9.4015   -5.4527    2.8837 H   0  0  0  0  0  0  0  0  0  0  0  0
   11.2317   -7.0270    3.2685 H   0  0  0  0  0  0  0  0  0  0  0  0
   10.8532   -6.9173    1.5673 H   0  0  0  0  0  0  0  0  0  0  0  0
    8.9838  -10.1202    1.5144 H   0  0  0  0  0  0  0  0  0  0  0  0
    9.5689   -8.8349    0.4851 H   0  0  0  0  0  0  0  0  0  0  0  0
    7.4139   -8.6116    2.6392 H   0  0  0  0  0  0  0  0  0  0  0  0
    7.2249   -8.4521    0.8914 H   0  0  0  0  0  0  0  0  0  0  0  0
   10.9040   -9.0713    4.4347 H   0  0  0  0  0  0  0  0  0  0  0  0
   10.1104  -10.4391    3.6788 H   0  0  0  0  0  0  0  0  0  0  0  0
    9.1468   -9.0516    4.2155 H   0  0  0  0  0  0  0  0  0  0  0  0
  1  2  1  0  0  0  0
  1 28  1  0  0  0  0
  1 29  1  0  0  0  0
  1 30  1  0  0  0  0
  2  3  1  0  0  0  0
  2 31  1  0  0  0  0
  2 32  1  0  0  0  0
  3  4  1  0  0  0  0
  4  5  2  0  0  0  0
  4  9  1  0  0  0  0
  5  6  1  0  0  0  0
  5 33  1  0  0  0  0
  6  7  2  0  0  0  0
  6 17  1  0  0  0  0
  7  8  1  0  0  0  0
  7 10  1  0  0  0  0
  8  9  2  0  0  0  0
  8 34  1  0  0  0  0
  9 35  1  0  0  0  0
 10 11  1  0  0  0  0
 11 12  2  0  0  0  0
 11 16  1  0  0  0  0
 12 13  1  0  0  0  0
 12 36  1  0  0  0  0
 13 14  2  0  0  0  0
 13 37  1  0  0  0  0
 14 15  1  0  0  0  0
 14 38  1  0  0  0  0
 15 16  2  0  0  0  0
 15 39  1  0  0  0  0
 16 17  1  0  0  0  0
 17 18  1  0  0  0  0
 18 19  1  0  0  0  0
 18 40  1  0  0  0  0
 18 41  1  0  0  0  0
 19 20  1  0  0  0  0
 19 42  1  0  0  0  0
 19 43  1  0  0  0  0
 20 21  1  0  0  0  0
 20 44  1  0  0  0  0
 20 45  1  0  0  0  0
 21 22  1  0  0  0  0
 21 26  1  0  0  0  0
 22 23  1  0  0  0  0
 22 46  1  0  0  0  0
 22 47  1  0  0  0  0
 23 24  1  0  0  0  0
 23 48  1  0  0  0  0
 23 49  1  0  0  0  0
 24 25  1  0  0  0  0
 24 27  1  0  0  0  0
 25 26  1  0  0  0  0
 25 50  1  0  0  0  0
 25 51  1  0  0  0  0
 26 52  1  0  0  0  0
 26 53  1  0  0  0  0
 27 54  1  0  0  0  0
 27 55  1  0  0  0  0
 27 56  1  0  0  0  0
M  END
$$$$
Target_lig_189
 OpenBabel04172516553D

 52 55  0  0  0  0  0  0  0  0999 V2000
    2.9129    0.1714    1.2528 C   0  0  0  0  0  0  0  0  0  0  0  0
    1.6658    0.0260    0.5100 N   0  0  0  0  0  0  0  0  0  0  0  0
    0.9435   -1.1915    0.9176 C   0  0  0  0  0  0  0  0  0  0  0  0
   -0.3963   -1.3271    0.1604 C   0  0  0  0  0  0  0  0  0  0  0  0
   -1.3205   -0.1881    0.3577 N   0  0  0  0  0  0  0  0  0  0  0  0
   -0.5822    1.0448   -0.0135 C   0  0  0  0  0  0  0  0  0  0  0  0
    0.8040    1.2133    0.6633 C   0  0  0  0  0  0  0  0  0  0  0  0
   -1.8761   -0.1076    1.7217 C   0  0  0  0  0  0  0  0  0  0  0  0
   -2.7342   -1.3326    2.0893 C   0  0  0  0  0  0  0  0  0  0  0  0
   -3.3160   -1.2276    3.5085 C   0  0  0  0  0  0  0  0  0  0  0  0
   -4.0811   -2.4425    3.8852 N   0  0  0  0  0  0  0  0  0  0  0  0
   -3.6552   -3.2138    4.9930 C   0  0  0  0  0  0  0  0  0  0  0  0
   -3.0991   -2.6184    6.1327 C   0  0  0  0  0  0  0  0  0  0  0  0
   -2.8118   -3.3522    7.2881 C   0  0  0  0  0  0  0  0  0  0  0  0
   -3.0785   -4.7151    7.3244 C   0  0  0  0  0  0  0  0  0  0  0  0
   -3.6084   -5.3448    6.1994 C   0  0  0  0  0  0  0  0  0  0  0  0
   -3.8969   -4.6051    5.0439 C   0  0  0  0  0  0  0  0  0  0  0  0
   -4.5751   -5.4860    3.6427 S   0  0  0  0  0  0  0  0  0  0  0  0
   -5.5201   -4.1735    2.8861 C   0  0  0  0  0  0  0  0  0  0  0  0
   -5.1887   -2.8175    3.0903 C   0  0  0  0  0  0  0  0  0  0  0  0
   -6.0367   -1.8495    2.5272 C   0  0  0  0  0  0  0  0  0  0  0  0
   -7.1296   -2.1956    1.7151 C   0  0  0  0  0  0  0  0  0  0  0  0
   -7.3982   -3.5491    1.4817 C   0  0  0  0  0  0  0  0  0  0  0  0
   -6.6047   -4.5316    2.0721 C   0  0  0  0  0  0  0  0  0  0  0  0
   -7.9826   -1.1235    1.0887 C   0  0  0  0  0  0  0  0  0  0  0  0
   -7.6123    0.1410    1.4388 F   0  0  0  0  0  0  0  0  0  0  0  0
   -7.9405   -1.1591   -0.2706 F   0  0  0  0  0  0  0  0  0  0  0  0
   -9.2970   -1.2319    1.4261 F   0  0  0  0  0  0  0  0  0  0  0  0
    3.5522   -0.7063    1.1062 H   0  0  0  0  0  0  0  0  0  0  0  0
    2.7437    0.2970    2.3281 H   0  0  0  0  0  0  0  0  0  0  0  0
    3.4772    1.0359    0.8877 H   0  0  0  0  0  0  0  0  0  0  0  0
    0.7652   -1.1974    2.0004 H   0  0  0  0  0  0  0  0  0  0  0  0
    1.5558   -2.0730    0.6889 H   0  0  0  0  0  0  0  0  0  0  0  0
   -0.8723   -2.2798    0.4138 H   0  0  0  0  0  0  0  0  0  0  0  0
   -0.1843   -1.4091   -0.9134 H   0  0  0  0  0  0  0  0  0  0  0  0
   -1.1983    1.9312    0.1793 H   0  0  0  0  0  0  0  0  0  0  0  0
   -0.4338    1.0275   -1.1022 H   0  0  0  0  0  0  0  0  0  0  0  0
    0.6577    1.4469    1.7261 H   0  0  0  0  0  0  0  0  0  0  0  0
    1.3029    2.0788    0.2076 H   0  0  0  0  0  0  0  0  0  0  0  0
   -2.5240    0.7774    1.7766 H   0  0  0  0  0  0  0  0  0  0  0  0
   -1.0918    0.0347    2.4732 H   0  0  0  0  0  0  0  0  0  0  0  0
   -2.1349   -2.2488    2.0498 H   0  0  0  0  0  0  0  0  0  0  0  0
   -3.5305   -1.4395    1.3440 H   0  0  0  0  0  0  0  0  0  0  0  0
   -3.9391   -0.3325    3.6160 H   0  0  0  0  0  0  0  0  0  0  0  0
   -2.4596   -1.0737    4.1753 H   0  0  0  0  0  0  0  0  0  0  0  0
   -2.9329   -1.5404    6.1785 H   0  0  0  0  0  0  0  0  0  0  0  0
   -2.4114   -2.8532    8.1671 H   0  0  0  0  0  0  0  0  0  0  0  0
   -2.8877   -5.2880    8.2285 H   0  0  0  0  0  0  0  0  0  0  0  0
   -3.8132   -6.4110    6.2348 H   0  0  0  0  0  0  0  0  0  0  0  0
   -5.8703   -0.7974    2.7440 H   0  0  0  0  0  0  0  0  0  0  0  0
   -8.2331   -3.8432    0.8488 H   0  0  0  0  0  0  0  0  0  0  0  0
   -6.8378   -5.5807    1.8963 H   0  0  0  0  0  0  0  0  0  0  0  0
  1  2  1  0  0  0  0
  1 29  1  0  0  0  0
  1 30  1  0  0  0  0
  1 31  1  0  0  0  0
  2  3  1  0  0  0  0
  2  7  1  0  0  0  0
  3  4  1  0  0  0  0
  3 32  1  0  0  0  0
  3 33  1  0  0  0  0
  4  5  1  0  0  0  0
  4 34  1  0  0  0  0
  4 35  1  0  0  0  0
  5  6  1  0  0  0  0
  5  8  1  0  0  0  0
  6  7  1  0  0  0  0
  6 36  1  0  0  0  0
  6 37  1  0  0  0  0
  7 38  1  0  0  0  0
  7 39  1  0  0  0  0
  8  9  1  0  0  0  0
  8 40  1  0  0  0  0
  8 41  1  0  0  0  0
  9 10  1  0  0  0  0
  9 42  1  0  0  0  0
  9 43  1  0  0  0  0
 10 11  1  0  0  0  0
 10 44  1  0  0  0  0
 10 45  1  0  0  0  0
 11 12  1  0  0  0  0
 11 20  1  0  0  0  0
 12 13  2  0  0  0  0
 12 17  1  0  0  0  0
 13 14  1  0  0  0  0
 13 46  1  0  0  0  0
 14 15  2  0  0  0  0
 14 47  1  0  0  0  0
 15 16  1  0  0  0  0
 15 48  1  0  0  0  0
 16 17  2  0  0  0  0
 16 49  1  0  0  0  0
 17 18  1  0  0  0  0
 18 19  1  0  0  0  0
 19 20  2  0  0  0  0
 19 24  1  0  0  0  0
 20 21  1  0  0  0  0
 21 22  2  0  0  0  0
 21 50  1  0  0  0  0
 22 23  1  0  0  0  0
 22 25  1  0  0  0  0
 23 24  2  0  0  0  0
 23 51  1  0  0  0  0
 24 52  1  0  0  0  0
 25 26  1  0  0  0  0
 25 27  1  0  0  0  0
 25 28  1  0  0  0  0
M  END
$$$$
Target_lig_190
 OpenBabel04172516553D

 41 43  0  0  1  0  0  0  0  0999 V2000
    0.8282   -0.0750   -0.1899 C   0  0  0  0  0  0  0  0  0  0  0  0
    2.3343   -0.0952   -0.2923 C   0  0  0  0  0  0  0  0  0  0  0  0
    3.1383    1.0760   -0.2144 C   0  0  0  0  0  0  0  0  0  0  0  0
    4.5415    1.0001   -0.1523 C   0  0  0  0  0  0  0  0  0  0  0  0
    5.0920   -0.2740   -0.0574 C   0  0  0  0  0  0  0  0  0  0  0  0
    4.3274   -1.4507   -0.1251 C   0  0  0  0  0  0  0  0  0  0  0  0
    2.9597   -1.3618   -0.3054 C   0  0  0  0  0  0  0  0  0  0  0  0
    2.1801   -2.4803   -0.3675 O   0  0  0  0  0  0  0  0  0  0  0  0
    5.1698   -2.5980    0.3971 C   0  0  3  0  0  0  0  0  0  0  0  0
    6.5233   -1.9312    0.3900 C   0  0  0  0  0  0  0  0  0  0  0  0
    7.7118   -2.5346    0.3587 C   0  0  0  0  0  0  0  0  0  0  0  0
    7.7237   -3.9890    0.1667 C   0  0  0  0  0  0  0  0  0  0  0  0
    8.7441   -4.6166    0.4483 O   0  0  0  0  0  0  0  0  0  0  0  0
    6.5548   -4.6174   -0.5517 C   0  0  3  0  0  0  0  0  0  0  0  0
    5.2221   -3.8828   -0.4206 C   0  0  0  0  0  0  0  0  0  0  0  0
    4.1939   -4.3203   -0.9521 O   0  0  0  0  0  0  0  0  0  0  0  0
    6.4772   -6.0889   -0.2112 C   0  0  0  0  0  0  0  0  0  0  0  0
    5.8213   -6.4956    0.7492 O   0  0  0  0  0  0  0  0  0  0  0  0
    7.2798   -7.0416   -1.0732 C   0  0  0  0  0  0  0  0  0  0  0  0
    6.4104   -0.5547    0.2413 O   0  0  0  0  0  0  0  0  0  0  0  0
    4.6530   -2.9152    1.8105 C   0  0  0  0  0  0  0  0  0  0  0  0
    5.4371    2.1943   -0.0444 C   0  0  0  0  0  0  0  0  0  0  0  0
    6.4982    2.1078    0.5736 O   0  0  0  0  0  0  0  0  0  0  0  0
    5.0827    3.4953   -0.7298 C   0  0  0  0  0  0  0  0  0  0  0  0
    2.5699    2.3168   -0.0847 O   0  0  0  0  0  0  0  0  0  0  0  0
    0.3883    0.9220   -0.2327 H   0  0  0  0  0  0  0  0  0  0  0  0
    0.5316   -0.5111    0.7714 H   0  0  0  0  0  0  0  0  0  0  0  0
    0.3783   -0.6537   -1.0021 H   0  0  0  0  0  0  0  0  0  0  0  0
    2.7208   -3.2619   -0.6142 H   0  0  0  0  0  0  0  0  0  0  0  0
    8.6541   -2.0036    0.3527 H   0  0  0  0  0  0  0  0  0  0  0  0
    6.7914   -4.5401   -1.6211 H   0  0  0  0  0  0  0  0  0  0  0  0
    7.9999   -6.4952   -1.6904 H   0  0  0  0  0  0  0  0  0  0  0  0
    6.6049   -7.5968   -1.7279 H   0  0  0  0  0  0  0  0  0  0  0  0
    7.8433   -7.7315   -0.4393 H   0  0  0  0  0  0  0  0  0  0  0  0
    4.4233   -2.0025    2.3775 H   0  0  0  0  0  0  0  0  0  0  0  0
    5.3695   -3.4999    2.3930 H   0  0  0  0  0  0  0  0  0  0  0  0
    3.7204   -3.4933    1.7628 H   0  0  0  0  0  0  0  0  0  0  0  0
    4.1457    3.4729   -1.2826 H   0  0  0  0  0  0  0  0  0  0  0  0
    5.8692    3.7357   -1.4530 H   0  0  0  0  0  0  0  0  0  0  0  0
    5.0336    4.2859    0.0250 H   0  0  0  0  0  0  0  0  0  0  0  0
    1.6207    2.2950   -0.2725 H   0  0  0  0  0  0  0  0  0  0  0  0
  1  2  1  0  0  0  0
  1 26  1  0  0  0  0
  1 27  1  0  0  0  0
  1 28  1  0  0  0  0
  2  3  2  0  0  0  0
  2  7  1  0  0  0  0
  3  4  1  0  0  0  0
  3 25  1  0  0  0  0
  4  5  2  0  0  0  0
  4 22  1  0  0  0  0
  5  6  1  0  0  0  0
  5 20  1  0  0  0  0
  6  7  2  0  0  0  0
  6  9  1  0  0  0  0
  7  8  1  0  0  0  0
  8 29  1  0  0  0  0
  9 10  1  0  0  0  0
  9 15  1  0  0  0  0
  9 21  1  0  0  0  0
 10 11  2  0  0  0  0
 10 20  1  0  0  0  0
 11 12  1  0  0  0  0
 11 30  1  0  0  0  0
 12 13  2  0  0  0  0
 12 14  1  0  0  0  0
 14 15  1  0  0  0  0
 14 17  1  0  0  0  0
 14 31  1  0  0  0  0
 15 16  2  0  0  0  0
 17 18  2  0  0  0  0
 17 19  1  0  0  0  0
 19 32  1  0  0  0  0
 19 33  1  0  0  0  0
 19 34  1  0  0  0  0
 21 35  1  0  0  0  0
 21 36  1  0  0  0  0
 21 37  1  0  0  0  0
 22 23  2  0  0  0  0
 22 24  1  0  0  0  0
 24 38  1  0  0  0  0
 24 39  1  0  0  0  0
 24 40  1  0  0  0  0
 25 41  1  0  0  0  0
M  END
$$$$
Target_lig_191
 OpenBabel04172516553D

 49 52  0  0  0  0  0  0  0  0999 V2000
    1.1071   -0.0407   -0.0188 C   0  0  0  0  0  0  0  0  0  0  0  0
    2.5688   -0.0595   -0.0466 N   0  0  0  0  0  0  0  0  0  0  0  0
    3.3156    1.1132   -0.0003 C   0  0  0  0  0  0  0  0  0  0  0  0
    4.6500    1.2042   -0.0185 C   0  0  0  0  0  0  0  0  0  0  0  0
    5.4035   -0.0596   -0.1216 C   0  0  0  0  0  0  0  0  0  0  0  0
    6.6313   -0.0425   -0.1732 O   0  0  0  0  0  0  0  0  0  0  0  0
    4.6458   -1.3326   -0.0957 C   0  0  0  0  0  0  0  0  0  0  0  0
    5.3642   -2.5304   -0.0799 C   0  0  0  0  0  0  0  0  0  0  0  0
    4.6957   -3.7396    0.0924 C   0  0  0  0  0  0  0  0  0  0  0  0
    3.2779   -3.7759    0.1025 C   0  0  0  0  0  0  0  0  0  0  0  0
    2.5844   -2.5477    0.0182 C   0  0  0  0  0  0  0  0  0  0  0  0
    3.2410   -1.3055   -0.0497 C   0  0  0  0  0  0  0  0  0  0  0  0
    2.6137   -4.9810    0.3308 N   0  0  0  0  0  0  0  0  0  0  0  0
    1.2943   -4.9891    1.0060 C   0  0  0  0  0  0  0  0  0  0  0  0
    1.0864   -6.3418    1.7354 C   0  0  0  0  0  0  0  0  0  0  0  0
    1.2782   -7.4328    0.7718 N   0  0  0  0  0  0  0  0  0  0  0  0
    2.5743   -7.4326    0.0820 C   0  0  0  0  0  0  0  0  0  0  0  0
    2.7584   -6.0827   -0.6550 C   0  0  0  0  0  0  0  0  0  0  0  0
    0.4260   -8.5051    0.7767 C   0  0  0  0  0  0  0  0  0  0  0  0
    0.2368   -9.2708   -0.3724 C   0  0  0  0  0  0  0  0  0  0  0  0
   -0.7026  -10.2992   -0.3881 C   0  0  0  0  0  0  0  0  0  0  0  0
   -1.4270  -10.5641    0.7603 C   0  0  0  0  0  0  0  0  0  0  0  0
   -1.1831   -9.7783    1.8707 C   0  0  0  0  0  0  0  0  0  0  0  0
   -0.2954   -8.7593    1.8932 N   0  0  0  0  0  0  0  0  0  0  0  0
    5.4573   -4.9311    0.1289 N   0  0  0  0  0  0  0  0  0  0  0  0
    5.3032    2.5227    0.0718 C   0  0  0  0  0  0  0  0  0  0  0  0
    4.6864    3.5733    0.1593 O   0  0  0  0  0  0  0  0  0  0  0  0
    6.6522    2.4956    0.0507 O   0  0  0  0  0  0  0  0  0  0  0  0
    0.7174    0.9842   -0.0144 H   0  0  0  0  0  0  0  0  0  0  0  0
    0.7248   -0.5301    0.8838 H   0  0  0  0  0  0  0  0  0  0  0  0
    0.6945   -0.5329   -0.9065 H   0  0  0  0  0  0  0  0  0  0  0  0
    2.7072    2.0150    0.0667 H   0  0  0  0  0  0  0  0  0  0  0  0
    6.4494   -2.5147   -0.1326 H   0  0  0  0  0  0  0  0  0  0  0  0
    1.4997   -2.5763    0.0234 H   0  0  0  0  0  0  0  0  0  0  0  0
    0.5008   -4.8524    0.2581 H   0  0  0  0  0  0  0  0  0  0  0  0
    1.2147   -4.1840    1.7437 H   0  0  0  0  0  0  0  0  0  0  0  0
    0.0843   -6.3343    2.1778 H   0  0  0  0  0  0  0  0  0  0  0  0
    1.8148   -6.4357    2.5519 H   0  0  0  0  0  0  0  0  0  0  0  0
    2.6909   -8.2590   -0.6256 H   0  0  0  0  0  0  0  0  0  0  0  0
    3.3705   -7.5500    0.8300 H   0  0  0  0  0  0  0  0  0  0  0  0
    1.9831   -5.9817   -1.4280 H   0  0  0  0  0  0  0  0  0  0  0  0
    3.7193   -6.0839   -1.1756 H   0  0  0  0  0  0  0  0  0  0  0  0
    0.7690   -9.0349   -1.2859 H   0  0  0  0  0  0  0  0  0  0  0  0
   -0.8685  -10.8685   -1.2946 H   0  0  0  0  0  0  0  0  0  0  0  0
   -2.1658  -11.3545    0.7880 H   0  0  0  0  0  0  0  0  0  0  0  0
   -1.7200   -9.9424    2.7995 H   0  0  0  0  0  0  0  0  0  0  0  0
    6.3950   -4.7973    0.4921 H   0  0  0  0  0  0  0  0  0  0  0  0
    4.9407   -5.6320    0.6569 H   0  0  0  0  0  0  0  0  0  0  0  0
    7.0286    1.5820   -0.0376 H   0  0  0  0  0  0  0  0  0  0  0  0
  1  2  1  0  0  0  0
  1 29  1  0  0  0  0
  1 30  1  0  0  0  0
  1 31  1  0  0  0  0
  2  3  1  0  0  0  0
  2 12  1  0  0  0  0
  3  4  2  0  0  0  0
  3 32  1  0  0  0  0
  4  5  1  0  0  0  0
  4 26  1  0  0  0  0
  5  6  2  0  0  0  0
  5  7  1  0  0  0  0
  7  8  2  0  0  0  0
  7 12  1  0  0  0  0
  8  9  1  0  0  0  0
  8 33  1  0  0  0  0
  9 10  2  0  0  0  0
  9 25  1  0  0  0  0
 10 11  1  0  0  0  0
 10 13  1  0  0  0  0
 11 12  2  0  0  0  0
 11 34  1  0  0  0  0
 13 14  1  0  0  0  0
 13 18  1  0  0  0  0
 14 15  1  0  0  0  0
 14 35  1  0  0  0  0
 14 36  1  0  0  0  0
 15 16  1  0  0  0  0
 15 37  1  0  0  0  0
 15 38  1  0  0  0  0
 16 17  1  0  0  0  0
 16 19  1  0  0  0  0
 17 18  1  0  0  0  0
 17 39  1  0  0  0  0
 17 40  1  0  0  0  0
 18 41  1  0  0  0  0
 18 42  1  0  0  0  0
 19 20  2  0  0  0  0
 19 24  1  0  0  0  0
 20 21  1  0  0  0  0
 20 43  1  0  0  0  0
 21 22  2  0  0  0  0
 21 44  1  0  0  0  0
 22 23  1  0  0  0  0
 22 45  1  0  0  0  0
 23 24  2  0  0  0  0
 23 46  1  0  0  0  0
 25 47  1  0  0  0  0
 25 48  1  0  0  0  0
 26 27  2  0  0  0  0
 26 28  1  0  0  0  0
 28 49  1  0  0  0  0
M  END
$$$$
Target_lig_192
 OpenBabel04172516553D

 43 44  0  0  1  0  0  0  0  0999 V2000
    0.7479   -0.7881    0.1090 C   0  0  0  0  0  0  0  0  0  0  0  0
    2.1595   -0.6238   -0.1757 N   0  0  0  0  0  0  0  0  0  0  0  0
    3.1029   -1.4648    0.3577 C   0  0  0  0  0  0  0  0  0  0  0  0
    4.4162   -1.3853    0.0008 C   0  0  0  0  0  0  0  0  0  0  0  0
    4.9202   -0.3810   -0.8706 C   0  0  0  0  0  0  0  0  0  0  0  0
    6.0997   -0.3164   -1.2055 O   0  0  0  0  0  0  0  0  0  0  0  0
    3.9381    0.5180   -1.2952 N   0  0  0  0  0  0  0  0  0  0  0  0
    2.5644    0.4194   -1.0085 C   0  0  0  0  0  0  0  0  0  0  0  0
    1.7498    1.2195   -1.4786 O   0  0  0  0  0  0  0  0  0  0  0  0
    4.3432    1.6392   -2.1234 C   0  0  0  0  0  0  0  0  0  0  0  0
    5.0096   -2.4483    0.6299 N   0  0  0  0  0  0  0  0  0  0  0  0
    4.0607   -3.0009    1.4509 C   0  0  0  0  0  0  0  0  0  0  0  0
    2.8777   -2.4631    1.2541 N   0  0  0  0  0  0  0  0  0  0  0  0
    6.3461   -2.9584    0.4293 C   0  0  0  0  0  0  0  0  0  0  0  0
    6.4075   -4.4562    0.0864 C   0  0  3  0  0  0  0  0  0  0  0  0
    5.5915   -4.8348   -1.1899 C   0  0  0  0  0  0  0  0  0  0  0  0
    5.7117   -6.2574   -1.5955 N   0  0  0  0  0  0  0  0  0  0  0  0
    5.1628   -7.1563   -0.5629 C   0  0  0  0  0  0  0  0  0  0  0  0
    4.9841   -6.5497   -2.8612 C   0  0  0  0  0  0  0  0  0  0  0  0
    5.5311   -5.8367   -4.1067 C   0  0  0  0  0  0  0  0  0  0  0  0
    6.9247   -6.0818   -4.2603 O   0  0  0  0  0  0  0  0  0  0  0  0
    7.7895   -4.8105   -0.0640 O   0  0  0  0  0  0  0  0  0  0  0  0
    0.5420   -1.7540    0.5803 H   0  0  0  0  0  0  0  0  0  0  0  0
    0.1830   -0.7330   -0.8272 H   0  0  0  0  0  0  0  0  0  0  0  0
    0.4198    0.0229    0.7656 H   0  0  0  0  0  0  0  0  0  0  0  0
    5.4109    1.6262   -2.3549 H   0  0  0  0  0  0  0  0  0  0  0  0
    4.1085    2.5684   -1.5932 H   0  0  0  0  0  0  0  0  0  0  0  0
    3.7749    1.6212   -3.0587 H   0  0  0  0  0  0  0  0  0  0  0  0
    4.2752   -3.8087    2.1408 H   0  0  0  0  0  0  0  0  0  0  0  0
    6.9085   -2.7570    1.3489 H   0  0  0  0  0  0  0  0  0  0  0  0
    6.8422   -2.3921   -0.3621 H   0  0  0  0  0  0  0  0  0  0  0  0
    6.0353   -5.0147    0.9502 H   0  0  0  0  0  0  0  0  0  0  0  0
    5.9860   -4.2149   -2.0029 H   0  0  0  0  0  0  0  0  0  0  0  0
    4.5348   -4.5722   -1.0602 H   0  0  0  0  0  0  0  0  0  0  0  0
    5.5860   -6.9748    0.4279 H   0  0  0  0  0  0  0  0  0  0  0  0
    5.4108   -8.1967   -0.8021 H   0  0  0  0  0  0  0  0  0  0  0  0
    4.0715   -7.0730   -0.4848 H   0  0  0  0  0  0  0  0  0  0  0  0
    3.9144   -6.3282   -2.7592 H   0  0  0  0  0  0  0  0  0  0  0  0
    5.0783   -7.6274   -3.0540 H   0  0  0  0  0  0  0  0  0  0  0  0
    5.3715   -4.7564   -4.0587 H   0  0  0  0  0  0  0  0  0  0  0  0
    5.0190   -6.2083   -5.0006 H   0  0  0  0  0  0  0  0  0  0  0  0
    7.2908   -6.0963   -3.3557 H   0  0  0  0  0  0  0  0  0  0  0  0
    8.0417   -4.6532   -0.9911 H   0  0  0  0  0  0  0  0  0  0  0  0
  1  2  1  0  0  0  0
  1 23  1  0  0  0  0
  1 24  1  0  0  0  0
  1 25  1  0  0  0  0
  2  3  1  0  0  0  0
  2  8  1  0  0  0  0
  3  4  2  0  0  0  0
  3 13  1  0  0  0  0
  4  5  1  0  0  0  0
  4 11  1  0  0  0  0
  5  6  2  0  0  0  0
  5  7  1  0  0  0  0
  7  8  1  0  0  0  0
  7 10  1  0  0  0  0
  8  9  2  0  0  0  0
 10 26  1  0  0  0  0
 10 27  1  0  0  0  0
 10 28  1  0  0  0  0
 11 12  1  0  0  0  0
 11 14  1  0  0  0  0
 12 13  2  0  0  0  0
 12 29  1  0  0  0  0
 14 15  1  0  0  0  0
 14 30  1  0  0  0  0
 14 31  1  0  0  0  0
 15 16  1  0  0  0  0
 15 22  1  0  0  0  0
 15 32  1  0  0  0  0
 16 17  1  0  0  0  0
 16 33  1  0  0  0  0
 16 34  1  0  0  0  0
 17 18  1  0  0  0  0
 17 19  1  0  0  0  0
 18 35  1  0  0  0  0
 18 36  1  0  0  0  0
 18 37  1  0  0  0  0
 19 20  1  0  0  0  0
 19 38  1  0  0  0  0
 19 39  1  0  0  0  0
 20 21  1  0  0  0  0
 20 40  1  0  0  0  0
 20 41  1  0  0  0  0
 21 42  1  0  0  0  0
 22 43  1  0  0  0  0
M  END
$$$$
Target_lig_193
 OpenBabel04172516553D

 52 56  0  0  1  0  0  0  0  0999 V2000
    0.0352    0.3358   -0.3529 C   0  0  0  0  0  0  0  0  0  0  0  0
    1.4604    0.2603   -0.4176 O   0  0  0  0  0  0  0  0  0  0  0  0
    2.0001   -0.7762    0.2772 C   0  0  0  0  0  0  0  0  0  0  0  0
    1.3674   -1.6510    0.8507 O   0  0  0  0  0  0  0  0  0  0  0  0
    3.4780   -0.5912    0.3782 C   0  0  3  0  0  0  0  0  0  0  0  0
    4.1391   -0.0991   -0.9493 C   0  0  3  0  0  0  0  0  0  0  0  0
    4.3107   -1.2475   -1.9405 C   0  0  0  0  0  0  0  0  0  0  0  0
    5.1549   -2.4167   -1.4186 C   0  0  0  0  0  0  0  0  0  0  0  0
    4.9236   -2.8421    0.0474 C   0  0  3  0  0  0  0  0  0  0  0  0
    4.2641   -1.7927    0.9169 C   0  0  3  0  0  0  0  0  0  0  0  0
    4.2862   -2.2259    2.4588 C   0  0  0  0  0  0  0  0  0  0  0  0
    5.7408   -2.6689    3.1046 C   0  0  3  0  0  0  0  0  0  0  0  0
    6.9611   -2.3231    4.0895 C   0  0  0  0  0  0  0  0  0  0  0  0
    7.7739   -1.1830    4.0065 C   0  0  0  0  0  0  0  0  0  0  0  0
    7.4379   -0.0866    3.0938 C   0  0  0  0  0  0  0  0  0  0  0  0
    6.7276   -0.7433    1.9127 C   0  0  0  0  0  0  0  0  0  0  0  0
    6.5682   -2.2579    1.9615 N   0  0  3  0  0  0  0  0  0  0  0  0
    6.2905   -3.1055    0.7769 C   0  0  0  0  0  0  0  0  0  0  0  0
    9.1020   -1.5375    4.3054 C   0  0  0  0  0  0  0  0  0  0  0  0
   10.3259   -0.8955    4.0227 C   0  0  0  0  0  0  0  0  0  0  0  0
   11.5104   -1.6182    4.1016 C   0  0  0  0  0  0  0  0  0  0  0  0
   11.4785   -2.9571    4.5328 C   0  0  0  0  0  0  0  0  0  0  0  0
   10.2729   -3.5855    4.8692 C   0  0  0  0  0  0  0  0  0  0  0  0
    9.0777   -2.8660    4.7040 C   0  0  0  0  0  0  0  0  0  0  0  0
    7.7452   -3.2740    4.7255 N   0  0  0  0  0  0  0  0  0  0  0  0
    5.4121    0.5242   -0.6890 O   0  0  0  0  0  0  0  0  0  0  0  0
   -0.2873    1.1025   -1.0596 H   0  0  0  0  0  0  0  0  0  0  0  0
   -0.2543    0.6387    0.6551 H   0  0  0  0  0  0  0  0  0  0  0  0
   -0.4117   -0.6174   -0.6300 H   0  0  0  0  0  0  0  0  0  0  0  0
    3.5985    0.2206    1.1115 H   0  0  0  0  0  0  0  0  0  0  0  0
    3.5539    0.6987   -1.4135 H   0  0  0  0  0  0  0  0  0  0  0  0
    4.8037   -0.8654   -2.8445 H   0  0  0  0  0  0  0  0  0  0  0  0
    3.3229   -1.6099   -2.2407 H   0  0  0  0  0  0  0  0  0  0  0  0
    6.2107   -2.1625   -1.5735 H   0  0  0  0  0  0  0  0  0  0  0  0
    4.9821   -3.2833   -2.0703 H   0  0  0  0  0  0  0  0  0  0  0  0
    4.3106   -3.7531    0.0522 H   0  0  0  0  0  0  0  0  0  0  0  0
    5.0974   -1.1584    0.8278 H   0  0  0  0  0  0  0  0  0  0  0  0
    3.6615   -3.1330    2.5198 H   0  0  0  0  0  0  0  0  0  0  0  0
    3.7708   -1.4557    3.0481 H   0  0  0  0  0  0  0  0  0  0  0  0
    5.2858   -2.1275    3.9679 H   0  0  0  0  0  0  0  0  0  0  0  0
    8.3139    0.4446    2.7105 H   0  0  0  0  0  0  0  0  0  0  0  0
    6.8054    0.6535    3.6004 H   0  0  0  0  0  0  0  0  0  0  0  0
    7.1841   -0.4403    0.9691 H   0  0  0  0  0  0  0  0  0  0  0  0
    5.7748   -0.2061    2.0244 H   0  0  0  0  0  0  0  0  0  0  0  0
    6.2772   -4.1554    1.1102 H   0  0  0  0  0  0  0  0  0  0  0  0
    7.1429   -3.0503    0.0943 H   0  0  0  0  0  0  0  0  0  0  0  0
   10.3375    0.1089    3.6130 H   0  0  0  0  0  0  0  0  0  0  0  0
   12.4290   -1.1724    3.7592 H   0  0  0  0  0  0  0  0  0  0  0  0
   12.4084   -3.5096    4.5575 H   0  0  0  0  0  0  0  0  0  0  0  0
   10.2656   -4.6306    5.1555 H   0  0  0  0  0  0  0  0  0  0  0  0
    7.4653   -4.2326    4.8642 H   0  0  0  0  0  0  0  0  0  0  0  0
    6.1332   -0.0565   -1.0001 H   0  0  0  0  0  0  0  0  0  0  0  0
  1  2  1  0  0  0  0
  1 27  1  0  0  0  0
  1 28  1  0  0  0  0
  1 29  1  0  0  0  0
  2  3  1  0  0  0  0
  3  4  2  0  0  0  0
  3  5  1  0  0  0  0
  5  6  1  0  0  0  0
  5 10  1  0  0  0  0
  5 30  1  0  0  0  0
  6  7  1  0  0  0  0
  6 26  1  0  0  0  0
  6 31  1  0  0  0  0
  7  8  1  0  0  0  0
  7 32  1  0  0  0  0
  7 33  1  0  0  0  0
  8  9  1  0  0  0  0
  8 34  1  0  0  0  0
  8 35  1  0  0  0  0
  9 10  1  0  0  0  0
  9 18  1  0  0  0  0
  9 36  1  0  0  0  0
 10 11  1  0  0  0  0
 10 37  1  0  0  0  0
 11 12  1  0  0  0  0
 11 38  1  0  0  0  0
 11 39  1  0  0  0  0
 12 13  1  0  0  0  0
 12 17  1  0  0  0  0
 12 40  1  0  0  0  0
 13 14  2  0  0  0  0
 13 25  1  0  0  0  0
 14 15  1  0  0  0  0
 14 19  1  0  0  0  0
 15 16  1  0  0  0  0
 15 41  1  0  0  0  0
 15 42  1  0  0  0  0
 16 17  1  0  0  0  0
 16 43  1  0  0  0  0
 16 44  1  0  0  0  0
 17 18  1  0  0  0  0
 18 45  1  0  0  0  0
 18 46  1  0  0  0  0
 19 20  2  0  0  0  0
 19 24  1  0  0  0  0
 20 21  1  0  0  0  0
 20 47  1  0  0  0  0
 21 22  2  0  0  0  0
 21 48  1  0  0  0  0
 22 23  1  0  0  0  0
 22 49  1  0  0  0  0
 23 24  2  0  0  0  0
 23 50  1  0  0  0  0
 24 25  1  0  0  0  0
 25 51  1  0  0  0  0
 26 52  1  0  0  0  0
M  END
$$$$
Target_lig_194
 OpenBabel04172516553D

 74 76  0  0  1  0  0  0  0  0999 V2000
    0.0654    1.2377    1.0993 C   0  0  0  0  0  0  0  0  0  0  0  0
    1.5365    1.5872    1.2630 C   0  0  0  0  0  0  0  0  0  0  0  0
    2.3901    0.4992    0.7899 N   0  0  0  0  0  0  0  0  0  0  0  0
    3.8295    0.8327    0.8040 C   0  0  3  0  0  0  0  0  0  0  0  0
    4.2122    1.9072   -0.2141 C   0  0  0  0  0  0  0  0  0  0  0  0
    3.9856    1.4240   -1.6418 C   0  0  3  0  0  0  0  0  0  0  0  0
    4.8851    0.1849   -1.9253 C   0  0  3  0  0  0  0  0  0  0  0  0
    4.5524   -0.9550   -0.8799 C   0  0  3  0  0  0  0  0  0  0  0  0
    4.7348   -0.4294    0.5843 C   0  0  3  0  0  0  0  0  0  0  0  0
    4.5747   -1.4419    1.6287 O   0  0  0  0  0  0  0  0  0  0  0  0
    4.7064   -0.9109    2.9677 C   0  0  3  0  0  0  0  0  0  0  0  0
    6.0813   -0.2616    3.2675 C   0  0  3  0  0  0  0  0  0  0  0  0
    7.1691   -1.3373    3.5484 C   0  0  3  0  0  0  0  0  0  0  0  0
    6.6889   -2.3892    4.6021 C   0  0  3  0  0  0  0  0  0  0  0  0
    5.2733   -2.8855    4.2412 C   0  0  0  0  0  0  0  0  0  0  0  0
    4.3524   -1.8279    4.0175 O   0  0  0  0  0  0  0  0  0  0  0  0
    7.6154   -3.6137    4.6771 C   0  0  0  0  0  0  0  0  0  0  0  0
    6.6958   -1.8144    5.9220 O   0  0  0  0  0  0  0  0  0  0  0  0
    8.4605   -0.7047    3.9274 N   0  0  0  0  0  0  0  0  0  0  0  0
    9.1355   -0.0674    2.8079 C   0  0  0  0  0  0  0  0  0  0  0  0
    5.9338    0.7002    4.3268 O   0  0  0  0  0  0  0  0  0  0  0  0
    5.4292   -2.0674   -1.1323 O   0  0  0  0  0  0  0  0  0  0  0  0
    6.2989    0.4207   -1.7620 O   0  0  0  0  0  0  0  0  0  0  0  0
    6.9828    1.3553   -2.6222 C   0  0  3  0  0  0  0  0  0  0  0  0
    6.8465    1.0188   -4.1431 C   0  0  3  0  0  0  0  0  0  0  0  0
    8.1428    1.0647   -4.9578 C   0  0  0  0  0  0  0  0  0  0  0  0
    9.3831    1.1996   -4.1574 C   0  0  0  0  0  0  0  0  0  0  0  0
    9.4149    1.4106   -2.8420 C   0  0  0  0  0  0  0  0  0  0  0  0
    8.2904    1.5059   -2.0636 O   0  0  0  0  0  0  0  0  0  0  0  0
   10.7063    1.6224   -2.0941 C   0  0  0  0  0  0  0  0  0  0  0  0
   10.8509    0.6993   -0.9735 N   0  0  0  0  0  0  0  0  0  0  0  0
    5.8441    1.8794   -4.8381 N   0  0  0  0  0  0  0  0  0  0  0  0
    4.1368    2.5795   -2.5462 N   0  0  0  0  0  0  0  0  0  0  0  0
   -0.5520    2.0110    1.5683 H   0  0  0  0  0  0  0  0  0  0  0  0
   -0.1789    0.2790    1.5673 H   0  0  0  0  0  0  0  0  0  0  0  0
   -0.2111    1.1873    0.0403 H   0  0  0  0  0  0  0  0  0  0  0  0
    1.7454    1.7769    2.3226 H   0  0  0  0  0  0  0  0  0  0  0  0
    1.7158    2.5118    0.7094 H   0  0  0  0  0  0  0  0  0  0  0  0
    2.0629    0.1389   -0.1052 H   0  0  0  0  0  0  0  0  0  0  0  0
    4.0609    1.2671    1.7801 H   0  0  0  0  0  0  0  0  0  0  0  0
    5.2718    2.1630   -0.0656 H   0  0  0  0  0  0  0  0  0  0  0  0
    3.6664    2.8356   -0.0173 H   0  0  0  0  0  0  0  0  0  0  0  0
    2.9477    1.0983   -1.7718 H   0  0  0  0  0  0  0  0  0  0  0  0
    4.7020   -0.2075   -2.9313 H   0  0  0  0  0  0  0  0  0  0  0  0
    3.5332   -1.3273   -1.0303 H   0  0  0  0  0  0  0  0  0  0  0  0
    5.7872   -0.1361    0.6338 H   0  0  0  0  0  0  0  0  0  0  0  0
    3.9287   -0.1583    3.0981 H   0  0  0  0  0  0  0  0  0  0  0  0
    6.4109    0.3368    2.4194 H   0  0  0  0  0  0  0  0  0  0  0  0
    7.3230   -1.9004    2.6165 H   0  0  0  0  0  0  0  0  0  0  0  0
    4.8701   -3.4576    5.0876 H   0  0  0  0  0  0  0  0  0  0  0  0
    5.2792   -3.5431    3.3654 H   0  0  0  0  0  0  0  0  0  0  0  0
    7.5898   -4.1931    3.7486 H   0  0  0  0  0  0  0  0  0  0  0  0
    7.3133   -4.2724    5.5009 H   0  0  0  0  0  0  0  0  0  0  0  0
    8.6547   -3.3403    4.8825 H   0  0  0  0  0  0  0  0  0  0  0  0
    5.8154   -1.4543    6.1128 H   0  0  0  0  0  0  0  0  0  0  0  0
    9.0769   -1.3840    4.3674 H   0  0  0  0  0  0  0  0  0  0  0  0
    8.5864    0.8084    2.4503 H   0  0  0  0  0  0  0  0  0  0  0  0
    9.2869   -0.7620    1.9757 H   0  0  0  0  0  0  0  0  0  0  0  0
   10.1199    0.2865    3.1302 H   0  0  0  0  0  0  0  0  0  0  0  0
    5.6579    0.2200    5.1213 H   0  0  0  0  0  0  0  0  0  0  0  0
    6.3146   -1.6842   -1.2873 H   0  0  0  0  0  0  0  0  0  0  0  0
    6.5581    2.3415   -2.4418 H   0  0  0  0  0  0  0  0  0  0  0  0
    6.4520   -0.0001   -4.2322 H   0  0  0  0  0  0  0  0  0  0  0  0
    8.1347    1.8935   -5.6777 H   0  0  0  0  0  0  0  0  0  0  0  0
    8.2065    0.1523   -5.5658 H   0  0  0  0  0  0  0  0  0  0  0  0
   10.3170    1.1439   -4.7115 H   0  0  0  0  0  0  0  0  0  0  0  0
   10.7412    2.6513   -1.7163 H   0  0  0  0  0  0  0  0  0  0  0  0
   11.5674    1.4970   -2.7608 H   0  0  0  0  0  0  0  0  0  0  0  0
   10.1047    0.9086   -0.3107 H   0  0  0  0  0  0  0  0  0  0  0  0
   11.7258    0.9009   -0.4938 H   0  0  0  0  0  0  0  0  0  0  0  0
    6.2205    2.8276   -4.9214 H   0  0  0  0  0  0  0  0  0  0  0  0
    5.0267    1.9966   -4.2227 H   0  0  0  0  0  0  0  0  0  0  0  0
    4.8073    3.2385   -2.1395 H   0  0  0  0  0  0  0  0  0  0  0  0
    3.2629    3.1157   -2.5162 H   0  0  0  0  0  0  0  0  0  0  0  0
  1  2  1  0  0  0  0
  1 34  1  0  0  0  0
  1 35  1  0  0  0  0
  1 36  1  0  0  0  0
  2  3  1  0  0  0  0
  2 37  1  0  0  0  0
  2 38  1  0  0  0  0
  3  4  1  0  0  0  0
  3 39  1  0  0  0  0
  4  5  1  0  0  0  0
  4  9  1  0  0  0  0
  4 40  1  0  0  0  0
  5  6  1  0  0  0  0
  5 41  1  0  0  0  0
  5 42  1  0  0  0  0
  6  7  1  0  0  0  0
  6 33  1  0  0  0  0
  6 43  1  0  0  0  0
  7  8  1  0  0  0  0
  7 23  1  0  0  0  0
  7 44  1  0  0  0  0
  8  9  1  0  0  0  0
  8 22  1  0  0  0  0
  8 45  1  0  0  0  0
  9 10  1  0  0  0  0
  9 46  1  0  0  0  0
 10 11  1  0  0  0  0
 11 12  1  0  0  0  0
 11 16  1  0  0  0  0
 11 47  1  0  0  0  0
 12 13  1  0  0  0  0
 12 21  1  0  0  0  0
 12 48  1  0  0  0  0
 13 14  1  0  0  0  0
 13 19  1  0  0  0  0
 13 49  1  0  0  0  0
 14 15  1  0  0  0  0
 14 17  1  0  0  0  0
 14 18  1  0  0  0  0
 15 16  1  0  0  0  0
 15 50  1  0  0  0  0
 15 51  1  0  0  0  0
 17 52  1  0  0  0  0
 17 53  1  0  0  0  0
 17 54  1  0  0  0  0
 18 55  1  0  0  0  0
 19 20  1  0  0  0  0
 19 56  1  0  0  0  0
 20 57  1  0  0  0  0
 20 58  1  0  0  0  0
 20 59  1  0  0  0  0
 21 60  1  0  0  0  0
 22 61  1  0  0  0  0
 23 24  1  0  0  0  0
 24 25  1  0  0  0  0
 24 29  1  0  0  0  0
 24 62  1  0  0  0  0
 25 26  1  0  0  0  0
 25 32  1  0  0  0  0
 25 63  1  0  0  0  0
 26 27  1  0  0  0  0
 26 64  1  0  0  0  0
 26 65  1  0  0  0  0
 27 28  2  0  0  0  0
 27 66  1  0  0  0  0
 28 29  1  0  0  0  0
 28 30  1  0  0  0  0
 30 31  1  0  0  0  0
 30 67  1  0  0  0  0
 30 68  1  0  0  0  0
 31 69  1  0  0  0  0
 31 70  1  0  0  0  0
 32 71  1  0  0  0  0
 32 72  1  0  0  0  0
 33 73  1  0  0  0  0
 33 74  1  0  0  0  0
M  END
$$$$
Target_lig_195
 OpenBabel04172516553D

 56 59  0  0  1  0  0  0  0  0999 V2000
   -0.0196   -3.0255   -1.1205 C   0  0  0  0  0  0  0  0  0  0  0  0
    0.4338   -3.4961   -2.3634 C   0  0  0  0  0  0  0  0  0  0  0  0
    1.4813   -2.8393   -3.0102 C   0  0  0  0  0  0  0  0  0  0  0  0
    2.0405   -1.6965   -2.4354 C   0  0  0  0  0  0  0  0  0  0  0  0
    1.5548   -1.2004   -1.2175 C   0  0  0  0  0  0  0  0  0  0  0  0
    2.2906    0.2935   -0.5731 S   0  0  0  0  0  0  0  0  0  0  0  0
    0.9304    0.9041    0.4112 C   0  0  0  0  0  0  0  0  0  0  0  0
    0.8389    2.2880    0.6180 C   0  0  0  0  0  0  0  0  0  0  0  0
   -0.2196    2.8225    1.3493 C   0  0  0  0  0  0  0  0  0  0  0  0
   -1.1779    1.9753    1.8959 C   0  0  0  0  0  0  0  0  0  0  0  0
   -1.0776    0.5932    1.7127 C   0  0  0  0  0  0  0  0  0  0  0  0
   -0.0275    0.0307    0.9662 C   0  0  0  0  0  0  0  0  0  0  0  0
   -0.0320   -1.3541    0.6658 N   0  0  0  0  0  0  0  0  0  0  0  0
    0.5269   -1.8744   -0.5288 C   0  0  0  0  0  0  0  0  0  0  0  0
   -0.0678   -2.2831    1.8292 C   0  0  0  0  0  0  0  0  0  0  0  0
    1.3415   -2.5640    2.3740 C   0  0  0  0  0  0  0  0  0  0  0  0
    1.3603   -3.4937    3.6019 C   0  0  0  0  0  0  0  0  0  0  0  0
    0.7466   -4.8280    3.4246 N   0  0  0  0  0  0  0  0  0  0  0  0
    1.3896   -5.5891    2.3414 C   0  0  0  0  0  0  0  0  0  0  0  0
    0.6999   -6.9361    2.1334 C   0  0  0  0  0  0  0  0  0  0  0  0
    0.7215   -7.7716    3.4040 C   0  0  0  0  0  0  0  0  0  0  0  0
    0.1567   -6.9748    4.5874 C   0  0  2  0  0  0  0  0  0  0  0  0
    0.8244   -5.5898    4.6912 C   0  0  0  0  0  0  0  0  0  0  0  0
    0.3271   -7.7514    5.8995 C   0  0  0  0  0  0  0  0  0  0  0  0
   -0.3144   -9.0194    5.8374 O   0  0  0  0  0  0  0  0  0  0  0  0
   -0.2423   -4.6900   -2.9439 C   0  0  0  0  0  0  0  0  0  0  0  0
   -0.8164   -5.4766   -2.1944 O   0  0  0  0  0  0  0  0  0  0  0  0
   -0.2473   -4.9081   -4.4362 C   0  0  0  0  0  0  0  0  0  0  0  0
   -0.8597   -3.5266   -0.6435 H   0  0  0  0  0  0  0  0  0  0  0  0
    1.8817   -3.1913   -3.9562 H   0  0  0  0  0  0  0  0  0  0  0  0
    2.8483   -1.1825   -2.9523 H   0  0  0  0  0  0  0  0  0  0  0  0
    1.5789    2.9585    0.1874 H   0  0  0  0  0  0  0  0  0  0  0  0
   -0.3047    3.8987    1.4756 H   0  0  0  0  0  0  0  0  0  0  0  0
   -2.0218    2.3894    2.4420 H   0  0  0  0  0  0  0  0  0  0  0  0
   -1.8723   -0.0397    2.0993 H   0  0  0  0  0  0  0  0  0  0  0  0
   -0.5603   -3.2199    1.5471 H   0  0  0  0  0  0  0  0  0  0  0  0
   -0.6822   -1.8734    2.6398 H   0  0  0  0  0  0  0  0  0  0  0  0
    1.8097   -1.6148    2.6655 H   0  0  0  0  0  0  0  0  0  0  0  0
    1.9841   -2.9754    1.5875 H   0  0  0  0  0  0  0  0  0  0  0  0
    0.8352   -2.9746    4.4142 H   0  0  0  0  0  0  0  0  0  0  0  0
    2.4038   -3.6043    3.9257 H   0  0  0  0  0  0  0  0  0  0  0  0
    2.4564   -5.7434    2.5529 H   0  0  0  0  0  0  0  0  0  0  0  0
    1.3186   -5.0482    1.3931 H   0  0  0  0  0  0  0  0  0  0  0  0
    1.1950   -7.4826    1.3238 H   0  0  0  0  0  0  0  0  0  0  0  0
   -0.3396   -6.7711    1.8179 H   0  0  0  0  0  0  0  0  0  0  0  0
    1.7529   -8.0804    3.6172 H   0  0  0  0  0  0  0  0  0  0  0  0
    0.1404   -8.6881    3.2453 H   0  0  0  0  0  0  0  0  0  0  0  0
   -0.9187   -6.8364    4.4081 H   0  0  0  0  0  0  0  0  0  0  0  0
    1.8716   -5.7077    5.0008 H   0  0  0  0  0  0  0  0  0  0  0  0
    0.3164   -5.0250    5.4837 H   0  0  0  0  0  0  0  0  0  0  0  0
   -0.0999   -7.1979    6.7425 H   0  0  0  0  0  0  0  0  0  0  0  0
    1.3862   -7.9271    6.1167 H   0  0  0  0  0  0  0  0  0  0  0  0
   -1.2480   -8.8682    5.6107 H   0  0  0  0  0  0  0  0  0  0  0  0
    0.1828   -4.0763   -4.9954 H   0  0  0  0  0  0  0  0  0  0  0  0
   -1.2844   -5.0182   -4.7678 H   0  0  0  0  0  0  0  0  0  0  0  0
    0.3100   -5.8204   -4.6647 H   0  0  0  0  0  0  0  0  0  0  0  0
  1  2  1  0  0  0  0
  1 14  2  0  0  0  0
  1 29  1  0  0  0  0
  2  3  2  0  0  0  0
  2 26  1  0  0  0  0
  3  4  1  0  0  0  0
  3 30  1  0  0  0  0
  4  5  2  0  0  0  0
  4 31  1  0  0  0  0
  5  6  1  0  0  0  0
  5 14  1  0  0  0  0
  6  7  1  0  0  0  0
  7  8  1  0  0  0  0
  7 12  2  0  0  0  0
  8  9  2  0  0  0  0
  8 32  1  0  0  0  0
  9 10  1  0  0  0  0
  9 33  1  0  0  0  0
 10 11  2  0  0  0  0
 10 34  1  0  0  0  0
 11 12  1  0  0  0  0
 11 35  1  0  0  0  0
 12 13  1  0  0  0  0
 13 14  1  0  0  0  0
 13 15  1  0  0  0  0
 15 16  1  0  0  0  0
 15 36  1  0  0  0  0
 15 37  1  0  0  0  0
 16 17  1  0  0  0  0
 16 38  1  0  0  0  0
 16 39  1  0  0  0  0
 17 18  1  0  0  0  0
 17 40  1  0  0  0  0
 17 41  1  0  0  0  0
 18 19  1  0  0  0  0
 18 23  1  0  0  0  0
 19 20  1  0  0  0  0
 19 42  1  0  0  0  0
 19 43  1  0  0  0  0
 20 21  1  0  0  0  0
 20 44  1  0  0  0  0
 20 45  1  0  0  0  0
 21 22  1  0  0  0  0
 21 46  1  0  0  0  0
 21 47  1  0  0  0  0
 22 23  1  0  0  0  0
 22 24  1  0  0  0  0
 22 48  1  6  0  0  0
 23 49  1  0  0  0  0
 23 50  1  0  0  0  0
 24 25  1  0  0  0  0
 24 51  1  0  0  0  0
 24 52  1  0  0  0  0
 25 53  1  0  0  0  0
 26 27  2  0  0  0  0
 26 28  1  0  0  0  0
 28 54  1  0  0  0  0
 28 55  1  0  0  0  0
 28 56  1  0  0  0  0
M  END
$$$$
Target_lig_196
 OpenBabel04172516553D

 59 62  0  0  1  0  0  0  0  0999 V2000
    4.8871   12.2192   -1.4491 C   0  0  0  0  0  0  0  0  0  0  0  0
    4.4453   11.1045   -0.6875 O   0  0  0  0  0  0  0  0  0  0  0  0
    3.2578   10.4895   -1.2078 C   0  0  1  0  0  0  0  0  0  0  0  0
    3.5333    9.7973   -2.5435 C   0  0  0  0  0  0  0  0  0  0  0  0
    2.3409    8.9577   -2.9746 C   0  0  0  0  0  0  0  0  0  0  0  0
    1.9379    7.9622   -1.8888 C   0  0  0  0  0  0  0  0  0  0  0  0
    1.6314    8.6448   -0.6270 N   0  0  0  0  0  0  0  0  0  0  0  0
    2.7792    9.4553   -0.1720 C   0  0  0  0  0  0  0  0  0  0  0  0
    1.2601    7.7108    0.4496 C   0  0  0  0  0  0  0  0  0  0  0  0
    0.0675    6.8085    0.1281 C   0  0  0  0  0  0  0  0  0  0  0  0
   -0.3281    5.9162    1.3107 C   0  0  0  0  0  0  0  0  0  0  0  0
   -0.7875    6.6518    2.5844 C   0  0  0  0  0  0  0  0  0  0  0  0
   -1.8736    7.6294    2.3594 N   0  0  0  0  0  0  0  0  0  0  0  0
   -2.9649    7.2600    1.5458 C   0  0  0  0  0  0  0  0  0  0  0  0
   -3.5576    5.9936    1.6663 C   0  0  0  0  0  0  0  0  0  0  0  0
   -4.6596    5.6291    0.8843 C   0  0  0  0  0  0  0  0  0  0  0  0
   -5.1683    6.5215   -0.0597 C   0  0  0  0  0  0  0  0  0  0  0  0
   -4.5985    7.7887   -0.1896 C   0  0  0  0  0  0  0  0  0  0  0  0
   -3.5210    8.1695    0.6203 C   0  0  0  0  0  0  0  0  0  0  0  0
   -2.8438    9.8075    0.3886 S   0  0  0  0  0  0  0  0  0  0  0  0
   -2.0575   10.0515    1.9740 C   0  0  0  0  0  0  0  0  0  0  0  0
   -1.6390    8.9636    2.7672 C   0  0  0  0  0  0  0  0  0  0  0  0
   -1.0805    9.2466    4.0269 C   0  0  0  0  0  0  0  0  0  0  0  0
   -0.9300   10.5617    4.4769 C   0  0  0  0  0  0  0  0  0  0  0  0
   -1.3155   11.6236    3.6663 C   0  0  0  0  0  0  0  0  0  0  0  0
   -1.8695   11.3697    2.4138 C   0  0  0  0  0  0  0  0  0  0  0  0
   -5.2455    4.2815    1.1023 C   0  0  0  0  0  0  0  0  0  0  0  0
   -4.5185    3.3568    1.4545 O   0  0  0  0  0  0  0  0  0  0  0  0
   -6.7310    4.0924    0.9422 C   0  0  0  0  0  0  0  0  0  0  0  0
    5.6958   12.7078   -0.8996 H   0  0  0  0  0  0  0  0  0  0  0  0
    4.0775   12.9404   -1.5943 H   0  0  0  0  0  0  0  0  0  0  0  0
    5.2855   11.8931   -2.4132 H   0  0  0  0  0  0  0  0  0  0  0  0
    2.4780   11.2521   -1.3272 H   0  0  0  0  0  0  0  0  0  0  0  0
    4.4267    9.1647   -2.4555 H   0  0  0  0  0  0  0  0  0  0  0  0
    3.7565   10.5326   -3.3222 H   0  0  0  0  0  0  0  0  0  0  0  0
    2.5844    8.4176   -3.8966 H   0  0  0  0  0  0  0  0  0  0  0  0
    1.4932    9.6159   -3.2047 H   0  0  0  0  0  0  0  0  0  0  0  0
    2.7342    7.2199   -1.7493 H   0  0  0  0  0  0  0  0  0  0  0  0
    1.0547    7.4336   -2.2629 H   0  0  0  0  0  0  0  0  0  0  0  0
    3.6227    8.8082    0.1083 H   0  0  0  0  0  0  0  0  0  0  0  0
    2.5084   10.0015    0.7421 H   0  0  0  0  0  0  0  0  0  0  0  0
    1.0120    8.3125    1.3307 H   0  0  0  0  0  0  0  0  0  0  0  0
    2.1192    7.0810    0.7213 H   0  0  0  0  0  0  0  0  0  0  0  0
    0.3130    6.1405   -0.7060 H   0  0  0  0  0  0  0  0  0  0  0  0
   -0.7799    7.4122   -0.2071 H   0  0  0  0  0  0  0  0  0  0  0  0
    0.5310    5.2835    1.5725 H   0  0  0  0  0  0  0  0  0  0  0  0
   -1.1018    5.2196    0.9709 H   0  0  0  0  0  0  0  0  0  0  0  0
    0.1008    7.1338    3.0116 H   0  0  0  0  0  0  0  0  0  0  0  0
   -1.1050    5.9173    3.3342 H   0  0  0  0  0  0  0  0  0  0  0  0
   -3.1775    5.2852    2.3993 H   0  0  0  0  0  0  0  0  0  0  0  0
   -5.9958    6.2526   -0.7088 H   0  0  0  0  0  0  0  0  0  0  0  0
   -4.9963    8.4811   -0.9285 H   0  0  0  0  0  0  0  0  0  0  0  0
   -0.8105    8.4379    4.7014 H   0  0  0  0  0  0  0  0  0  0  0  0
   -0.5288   10.7537    5.4690 H   0  0  0  0  0  0  0  0  0  0  0  0
   -1.2030   12.6474    4.0131 H   0  0  0  0  0  0  0  0  0  0  0  0
   -2.1746   12.2053    1.7882 H   0  0  0  0  0  0  0  0  0  0  0  0
   -7.2503    5.0174    0.6843 H   0  0  0  0  0  0  0  0  0  0  0  0
   -7.1396    3.7440    1.8956 H   0  0  0  0  0  0  0  0  0  0  0  0
   -6.9179    3.3510    0.1620 H   0  0  0  0  0  0  0  0  0  0  0  0
  1  2  1  0  0  0  0
  1 30  1  0  0  0  0
  1 31  1  0  0  0  0
  1 32  1  0  0  0  0
  3  4  1  0  0  0  0
  3  8  1  0  0  0  0
  3  2  1  0  0  0  0
  3 33  1  6  0  0  0
  4  5  1  0  0  0  0
  4 34  1  0  0  0  0
  4 35  1  0  0  0  0
  5  6  1  0  0  0  0
  5 36  1  0  0  0  0
  5 37  1  0  0  0  0
  6  7  1  0  0  0  0
  6 38  1  0  0  0  0
  6 39  1  0  0  0  0
  7  8  1  0  0  0  0
  7  9  1  0  0  0  0
  8 40  1  0  0  0  0
  8 41  1  0  0  0  0
  9 10  1  0  0  0  0
  9 42  1  0  0  0  0
  9 43  1  0  0  0  0
 10 11  1  0  0  0  0
 10 44  1  0  0  0  0
 10 45  1  0  0  0  0
 11 12  1  0  0  0  0
 11 46  1  0  0  0  0
 11 47  1  0  0  0  0
 12 13  1  0  0  0  0
 12 48  1  0  0  0  0
 12 49  1  0  0  0  0
 13 14  1  0  0  0  0
 13 22  1  0  0  0  0
 14 15  1  0  0  0  0
 14 19  2  0  0  0  0
 15 16  2  0  0  0  0
 15 50  1  0  0  0  0
 16 17  1  0  0  0  0
 16 27  1  0  0  0  0
 17 18  2  0  0  0  0
 17 51  1  0  0  0  0
 18 19  1  0  0  0  0
 18 52  1  0  0  0  0
 19 20  1  0  0  0  0
 20 21  1  0  0  0  0
 21 22  1  0  0  0  0
 21 26  2  0  0  0  0
 22 23  2  0  0  0  0
 23 24  1  0  0  0  0
 23 53  1  0  0  0  0
 24 25  2  0  0  0  0
 24 54  1  0  0  0  0
 25 26  1  0  0  0  0
 25 55  1  0  0  0  0
 26 56  1  0  0  0  0
 27 28  2  0  0  0  0
 27 29  1  0  0  0  0
 29 57  1  0  0  0  0
 29 58  1  0  0  0  0
 29 59  1  0  0  0  0
M  END
$$$$
Target_lig_197
 OpenBabel04172516553D

 45 47  0  0  0  0  0  0  0  0999 V2000
    1.3755   -0.4113   -0.8251 C   0  0  0  0  0  0  0  0  0  0  0  0
    2.5752   -0.0189   -0.0053 C   0  0  0  0  0  0  0  0  0  0  0  0
    3.0323    1.1219   -0.0534 O   0  0  0  0  0  0  0  0  0  0  0  0
    3.2097   -1.0396    0.8820 C   0  0  0  0  0  0  0  0  0  0  0  0
    4.3108   -0.6585    1.6662 C   0  0  0  0  0  0  0  0  0  0  0  0
    4.9821   -1.5816    2.4890 C   0  0  0  0  0  0  0  0  0  0  0  0
    4.5244   -2.9125    2.5006 C   0  0  0  0  0  0  0  0  0  0  0  0
    3.4094   -3.2880    1.7401 C   0  0  0  0  0  0  0  0  0  0  0  0
    2.7561   -2.3589    0.9286 C   0  0  0  0  0  0  0  0  0  0  0  0
    5.3161   -4.1724    3.4848 S   0  0  0  0  0  0  0  0  0  0  0  0
    6.9584   -3.4842    3.6124 C   0  0  0  0  0  0  0  0  0  0  0  0
    8.0245   -4.3733    3.8113 C   0  0  0  0  0  0  0  0  0  0  0  0
    9.3311   -3.8995    3.9000 C   0  0  0  0  0  0  0  0  0  0  0  0
    9.5755   -2.5335    3.8125 C   0  0  0  0  0  0  0  0  0  0  0  0
    8.5143   -1.6419    3.6330 C   0  0  0  0  0  0  0  0  0  0  0  0
    7.1875   -2.0961    3.5254 C   0  0  0  0  0  0  0  0  0  0  0  0
    6.1477   -1.1917    3.1987 N   0  0  0  0  0  0  0  0  0  0  0  0
    6.0089    0.0037    4.0713 C   0  0  0  0  0  0  0  0  0  0  0  0
    5.1074   -0.2815    5.2828 C   0  0  0  0  0  0  0  0  0  0  0  0
    4.9524    0.9349    6.2082 C   0  0  0  0  0  0  0  0  0  0  0  0
    4.4267    2.1464    5.5560 N   0  0  0  0  0  0  0  0  0  0  0  0
    3.0698    1.9536    5.0368 C   0  0  0  0  0  0  0  0  0  0  0  0
    4.4333    3.2715    6.4971 C   0  0  0  0  0  0  0  0  0  0  0  0
    1.0081    0.4654   -1.3671 H   0  0  0  0  0  0  0  0  0  0  0  0
    0.5715   -0.7662   -0.1758 H   0  0  0  0  0  0  0  0  0  0  0  0
    1.6527   -1.1738   -1.5571 H   0  0  0  0  0  0  0  0  0  0  0  0
    4.6833    0.3614    1.5852 H   0  0  0  0  0  0  0  0  0  0  0  0
    3.0538   -4.3159    1.7630 H   0  0  0  0  0  0  0  0  0  0  0  0
    1.9119   -2.6982    0.3381 H   0  0  0  0  0  0  0  0  0  0  0  0
    7.8425   -5.4437    3.8742 H   0  0  0  0  0  0  0  0  0  0  0  0
   10.1557   -4.5968    4.0203 H   0  0  0  0  0  0  0  0  0  0  0  0
   10.5955   -2.1596    3.8533 H   0  0  0  0  0  0  0  0  0  0  0  0
    8.7441   -0.5874    3.5037 H   0  0  0  0  0  0  0  0  0  0  0  0
    5.6183    0.8475    3.4931 H   0  0  0  0  0  0  0  0  0  0  0  0
    6.9839    0.3454    4.4378 H   0  0  0  0  0  0  0  0  0  0  0  0
    5.5355   -1.1049    5.8689 H   0  0  0  0  0  0  0  0  0  0  0  0
    4.1194   -0.6302    4.9604 H   0  0  0  0  0  0  0  0  0  0  0  0
    5.9451    1.1594    6.6212 H   0  0  0  0  0  0  0  0  0  0  0  0
    4.3177    0.6533    7.0591 H   0  0  0  0  0  0  0  0  0  0  0  0
    3.0568    1.2174    4.2273 H   0  0  0  0  0  0  0  0  0  0  0  0
    2.6882    2.8839    4.6004 H   0  0  0  0  0  0  0  0  0  0  0  0
    2.3716    1.6291    5.8167 H   0  0  0  0  0  0  0  0  0  0  0  0
    5.4479    3.4643    6.8634 H   0  0  0  0  0  0  0  0  0  0  0  0
    3.7826    3.0916    7.3610 H   0  0  0  0  0  0  0  0  0  0  0  0
    4.1014    4.1907    6.0003 H   0  0  0  0  0  0  0  0  0  0  0  0
  1  2  1  0  0  0  0
  1 24  1  0  0  0  0
  1 25  1  0  0  0  0
  1 26  1  0  0  0  0
  2  3  2  0  0  0  0
  2  4  1  0  0  0  0
  4  5  2  0  0  0  0
  4  9  1  0  0  0  0
  5  6  1  0  0  0  0
  5 27  1  0  0  0  0
  6  7  2  0  0  0  0
  6 17  1  0  0  0  0
  7  8  1  0  0  0  0
  7 10  1  0  0  0  0
  8  9  2  0  0  0  0
  8 28  1  0  0  0  0
  9 29  1  0  0  0  0
 10 11  1  0  0  0  0
 11 12  2  0  0  0  0
 11 16  1  0  0  0  0
 12 13  1  0  0  0  0
 12 30  1  0  0  0  0
 13 14  2  0  0  0  0
 13 31  1  0  0  0  0
 14 15  1  0  0  0  0
 14 32  1  0  0  0  0
 15 16  2  0  0  0  0
 15 33  1  0  0  0  0
 16 17  1  0  0  0  0
 17 18  1  0  0  0  0
 18 19  1  0  0  0  0
 18 34  1  0  0  0  0
 18 35  1  0  0  0  0
 19 20  1  0  0  0  0
 19 36  1  0  0  0  0
 19 37  1  0  0  0  0
 20 21  1  0  0  0  0
 20 38  1  0  0  0  0
 20 39  1  0  0  0  0
 21 22  1  0  0  0  0
 21 23  1  0  0  0  0
 22 40  1  0  0  0  0
 22 41  1  0  0  0  0
 22 42  1  0  0  0  0
 23 43  1  0  0  0  0
 23 44  1  0  0  0  0
 23 45  1  0  0  0  0
M  END
$$$$
Target_lig_198
 OpenBabel04172516553D

 44 46  0  0  0  0  0  0  0  0999 V2000
    3.1847   -3.1572   -0.6071 C   0  0  0  0  0  0  0  0  0  0  0  0
    2.6484   -2.9287    0.7388 N   0  0  0  0  0  0  0  0  0  0  0  0
    1.2284   -3.2964    0.7648 C   0  0  0  0  0  0  0  0  0  0  0  0
    3.3785   -3.6885    1.7699 C   0  0  0  0  0  0  0  0  0  0  0  0
    4.8729   -3.3446    1.8932 C   0  0  0  0  0  0  0  0  0  0  0  0
    5.1378   -1.8509    2.1528 C   0  0  0  0  0  0  0  0  0  0  0  0
    6.5908   -1.5401    2.2237 N   0  0  0  0  0  0  0  0  0  0  0  0
    7.2940   -1.7537    1.0091 C   0  0  0  0  0  0  0  0  0  0  0  0
    6.9925   -0.9697   -0.1159 C   0  0  0  0  0  0  0  0  0  0  0  0
    7.7151   -1.1079   -1.3025 C   0  0  0  0  0  0  0  0  0  0  0  0
    8.7361   -2.0485   -1.3919 C   0  0  0  0  0  0  0  0  0  0  0  0
    9.0504   -2.8385   -0.2849 C   0  0  0  0  0  0  0  0  0  0  0  0
    8.3531   -2.6790    0.9192 C   0  0  0  0  0  0  0  0  0  0  0  0
    8.8367   -3.6894    2.3108 S   0  0  0  0  0  0  0  0  0  0  0  0
    8.2617   -2.6629    3.6539 C   0  0  0  0  0  0  0  0  0  0  0  0
    7.1873   -1.7662    3.4907 C   0  0  0  0  0  0  0  0  0  0  0  0
    6.7958   -0.9740    4.5869 C   0  0  0  0  0  0  0  0  0  0  0  0
    7.4625   -1.0549    5.8111 C   0  0  0  0  0  0  0  0  0  0  0  0
    8.5155   -1.9572    5.9559 C   0  0  0  0  0  0  0  0  0  0  0  0
    8.9089   -2.7653    4.8895 C   0  0  0  0  0  0  0  0  0  0  0  0
    7.1995   -0.2973    6.9195 O   0  0  0  0  0  0  0  0  0  0  0  0
    6.1716    0.6786    6.7987 C   0  0  0  0  0  0  0  0  0  0  0  0
    2.6076   -2.5926   -1.3486 H   0  0  0  0  0  0  0  0  0  0  0  0
    3.1638   -4.2166   -0.8862 H   0  0  0  0  0  0  0  0  0  0  0  0
    4.2126   -2.7928   -0.6921 H   0  0  0  0  0  0  0  0  0  0  0  0
    0.6677   -2.7347    0.0085 H   0  0  0  0  0  0  0  0  0  0  0  0
    0.7820   -3.0471    1.7333 H   0  0  0  0  0  0  0  0  0  0  0  0
    1.0750   -4.3667    0.5780 H   0  0  0  0  0  0  0  0  0  0  0  0
    3.2888   -4.7647    1.5829 H   0  0  0  0  0  0  0  0  0  0  0  0
    2.9157   -3.4970    2.7450 H   0  0  0  0  0  0  0  0  0  0  0  0
    5.3984   -3.6832    0.9930 H   0  0  0  0  0  0  0  0  0  0  0  0
    5.2911   -3.9353    2.7180 H   0  0  0  0  0  0  0  0  0  0  0  0
    4.6288   -1.5601    3.0809 H   0  0  0  0  0  0  0  0  0  0  0  0
    4.6738   -1.2380    1.3719 H   0  0  0  0  0  0  0  0  0  0  0  0
    6.2223   -0.2051   -0.0532 H   0  0  0  0  0  0  0  0  0  0  0  0
    7.4913   -0.4661   -2.1505 H   0  0  0  0  0  0  0  0  0  0  0  0
    9.3013   -2.1579   -2.3123 H   0  0  0  0  0  0  0  0  0  0  0  0
    9.8552   -3.5655   -0.3614 H   0  0  0  0  0  0  0  0  0  0  0  0
    6.0036   -0.2496    4.4327 H   0  0  0  0  0  0  0  0  0  0  0  0
    9.0492   -2.0180    6.9013 H   0  0  0  0  0  0  0  0  0  0  0  0
    9.7404   -3.4528    5.0212 H   0  0  0  0  0  0  0  0  0  0  0  0
    6.1025    1.2130    7.7507 H   0  0  0  0  0  0  0  0  0  0  0  0
    5.2030    0.2043    6.6104 H   0  0  0  0  0  0  0  0  0  0  0  0
    6.4098    1.4140    6.0222 H   0  0  0  0  0  0  0  0  0  0  0  0
  1  2  1  0  0  0  0
  1 23  1  0  0  0  0
  1 24  1  0  0  0  0
  1 25  1  0  0  0  0
  2  3  1  0  0  0  0
  2  4  1  0  0  0  0
  3 26  1  0  0  0  0
  3 27  1  0  0  0  0
  3 28  1  0  0  0  0
  4  5  1  0  0  0  0
  4 29  1  0  0  0  0
  4 30  1  0  0  0  0
  5  6  1  0  0  0  0
  5 31  1  0  0  0  0
  5 32  1  0  0  0  0
  6  7  1  0  0  0  0
  6 33  1  0  0  0  0
  6 34  1  0  0  0  0
  7  8  1  0  0  0  0
  7 16  1  0  0  0  0
  8  9  2  0  0  0  0
  8 13  1  0  0  0  0
  9 10  1  0  0  0  0
  9 35  1  0  0  0  0
 10 11  2  0  0  0  0
 10 36  1  0  0  0  0
 11 12  1  0  0  0  0
 11 37  1  0  0  0  0
 12 13  2  0  0  0  0
 12 38  1  0  0  0  0
 13 14  1  0  0  0  0
 14 15  1  0  0  0  0
 15 16  2  0  0  0  0
 15 20  1  0  0  0  0
 16 17  1  0  0  0  0
 17 18  2  0  0  0  0
 17 39  1  0  0  0  0
 18 19  1  0  0  0  0
 18 21  1  0  0  0  0
 19 20  2  0  0  0  0
 19 40  1  0  0  0  0
 20 41  1  0  0  0  0
 21 22  1  0  0  0  0
 22 42  1  0  0  0  0
 22 43  1  0  0  0  0
 22 44  1  0  0  0  0
M  END
$$$$
Target_lig_199
 OpenBabel04172516553D

 40 42  0  0  0  0  0  0  0  0999 V2000
    2.7378    3.8711    2.9518 C   0  0  0  0  0  0  0  0  0  0  0  0
    2.3657    3.4125    1.6104 N   0  0  0  0  0  0  0  0  0  0  0  0
    0.9032    3.3677    1.5095 C   0  0  0  0  0  0  0  0  0  0  0  0
    2.9267    4.2716    0.5541 C   0  0  0  0  0  0  0  0  0  0  0  0
    4.4612    4.2387    0.4741 C   0  0  0  0  0  0  0  0  0  0  0  0
    5.0023    2.8209    0.2393 C   0  0  0  0  0  0  0  0  0  0  0  0
    6.4893    2.8111    0.2256 N   0  0  0  0  0  0  0  0  0  0  0  0
    7.1491    2.6504    1.4852 C   0  0  0  0  0  0  0  0  0  0  0  0
    6.4416    2.4597    2.6975 C   0  0  0  0  0  0  0  0  0  0  0  0
    7.0730    2.3048    3.9407 C   0  0  0  0  0  0  0  0  0  0  0  0
    8.4501    2.3220    4.0169 C   0  0  0  0  0  0  0  0  0  0  0  0
    9.1853    2.4965    2.8538 C   0  0  0  0  0  0  0  0  0  0  0  0
    8.5516    2.6618    1.6016 C   0  0  0  0  0  0  0  0  0  0  0  0
    9.6567    2.8765    0.2317 S   0  0  0  0  0  0  0  0  0  0  0  0
    8.5467    3.0086   -1.1455 C   0  0  0  0  0  0  0  0  0  0  0  0
    7.1394    2.9896   -1.0342 C   0  0  0  0  0  0  0  0  0  0  0  0
    6.4256    3.1428   -2.2467 C   0  0  0  0  0  0  0  0  0  0  0  0
    7.0655    3.2695   -3.4852 C   0  0  0  0  0  0  0  0  0  0  0  0
    8.4450    3.2692   -3.5693 C   0  0  0  0  0  0  0  0  0  0  0  0
    9.1818    3.1462   -2.3982 C   0  0  0  0  0  0  0  0  0  0  0  0
    6.1264    3.4221   -4.9214 Cl  0  0  0  0  0  0  0  0  0  0  0  0
    2.3372    3.1890    3.7093 H   0  0  0  0  0  0  0  0  0  0  0  0
    2.3702    4.8817    3.1611 H   0  0  0  0  0  0  0  0  0  0  0  0
    3.8186    3.8699    3.0951 H   0  0  0  0  0  0  0  0  0  0  0  0
    0.4840    2.7219    2.2900 H   0  0  0  0  0  0  0  0  0  0  0  0
    0.5932    2.9393    0.5497 H   0  0  0  0  0  0  0  0  0  0  0  0
    0.4525    4.3621    1.6084 H   0  0  0  0  0  0  0  0  0  0  0  0
    2.5958    5.3106    0.6850 H   0  0  0  0  0  0  0  0  0  0  0  0
    2.5414    3.9413   -0.4210 H   0  0  0  0  0  0  0  0  0  0  0  0
    4.8964    4.6760    1.3781 H   0  0  0  0  0  0  0  0  0  0  0  0
    4.7777    4.8953   -0.3453 H   0  0  0  0  0  0  0  0  0  0  0  0
    4.5759    2.4054   -0.6786 H   0  0  0  0  0  0  0  0  0  0  0  0
    4.6097    2.1110    0.9731 H   0  0  0  0  0  0  0  0  0  0  0  0
    5.3622    2.4146    2.7306 H   0  0  0  0  0  0  0  0  0  0  0  0
    6.4728    2.1649    4.8355 H   0  0  0  0  0  0  0  0  0  0  0  0
    8.9546    2.1959    4.9726 H   0  0  0  0  0  0  0  0  0  0  0  0
   10.2715    2.5023    2.9212 H   0  0  0  0  0  0  0  0  0  0  0  0
    5.3432    3.1699   -2.2763 H   0  0  0  0  0  0  0  0  0  0  0  0
    8.9511    3.3655   -4.5243 H   0  0  0  0  0  0  0  0  0  0  0  0
   10.2689    3.1537   -2.4643 H   0  0  0  0  0  0  0  0  0  0  0  0
  1  2  1  0  0  0  0
  1 22  1  0  0  0  0
  1 23  1  0  0  0  0
  1 24  1  0  0  0  0
  2  3  1  0  0  0  0
  2  4  1  0  0  0  0
  3 25  1  0  0  0  0
  3 26  1  0  0  0  0
  3 27  1  0  0  0  0
  4  5  1  0  0  0  0
  4 28  1  0  0  0  0
  4 29  1  0  0  0  0
  5  6  1  0  0  0  0
  5 30  1  0  0  0  0
  5 31  1  0  0  0  0
  6  7  1  0  0  0  0
  6 32  1  0  0  0  0
  6 33  1  0  0  0  0
  7  8  1  0  0  0  0
  7 16  1  0  0  0  0
  8  9  2  0  0  0  0
  8 13  1  0  0  0  0
  9 10  1  0  0  0  0
  9 34  1  0  0  0  0
 10 11  2  0  0  0  0
 10 35  1  0  0  0  0
 11 12  1  0  0  0  0
 11 36  1  0  0  0  0
 12 13  2  0  0  0  0
 12 37  1  0  0  0  0
 13 14  1  0  0  0  0
 14 15  1  0  0  0  0
 15 16  2  0  0  0  0
 15 20  1  0  0  0  0
 16 17  1  0  0  0  0
 17 18  2  0  0  0  0
 17 38  1  0  0  0  0
 18 19  1  0  0  0  0
 18 21  1  0  0  0  0
 19 20  2  0  0  0  0
 19 39  1  0  0  0  0
 20 40  1  0  0  0  0
M  END
$$$$
Target_lig_200
 OpenBabel04172516553D

 46 48  0  0  0  0  0  0  0  0999 V2000
    0.8134    0.1204   -0.0863 C   0  0  0  0  0  0  0  0  0  0  0  0
    2.3114    0.0877   -0.1128 C   0  0  0  0  0  0  0  0  0  0  0  0
    3.0826    1.2404   -0.1652 C   0  0  0  0  0  0  0  0  0  0  0  0
    4.4882    1.1604   -0.2047 C   0  0  0  0  0  0  0  0  0  0  0  0
    5.1896   -0.0664   -0.1849 C   0  0  0  0  0  0  0  0  0  0  0  0
    6.6185   -0.1539   -0.2110 N   0  0  0  0  0  0  0  0  0  0  0  0
    7.3682   -1.3798   -0.1728 C   0  0  0  0  0  0  0  0  0  0  0  0
    8.7825   -1.4236   -0.1611 C   0  0  0  0  0  0  0  0  0  0  0  0
    9.5137   -2.6268   -0.1413 C   0  0  0  0  0  0  0  0  0  0  0  0
    8.8597   -3.8500   -0.1238 C   0  0  0  0  0  0  0  0  0  0  0  0
    7.4696   -3.8407   -0.1262 C   0  0  0  0  0  0  0  0  0  0  0  0
    6.7337   -2.6372   -0.1505 C   0  0  0  0  0  0  0  0  0  0  0  0
    4.9833   -2.8782   -0.1378 S   0  0  0  0  0  0  0  0  0  0  0  0
    4.3787   -1.2179   -0.1429 C   0  0  0  0  0  0  0  0  0  0  0  0
    2.9675   -1.1339   -0.1048 C   0  0  0  0  0  0  0  0  0  0  0  0
    9.5877   -5.1589   -0.1027 C   0  0  0  0  0  0  0  0  0  0  0  0
    7.3964    1.1103   -0.1165 C   0  0  0  0  0  0  0  0  0  0  0  0
    8.0336    1.5490   -1.4458 C   0  0  0  0  0  0  0  0  0  0  0  0
    7.0624    2.0802   -2.5095 C   0  0  0  0  0  0  0  0  0  0  0  0
    7.7748    2.6013   -3.7007 N   0  0  0  0  0  0  0  0  0  0  0  0
    8.5432    1.5588   -4.3884 C   0  0  0  0  0  0  0  0  0  0  0  0
    6.8292    3.2043   -4.6452 C   0  0  0  0  0  0  0  0  0  0  0  0
    0.4309    1.1445   -0.0680 H   0  0  0  0  0  0  0  0  0  0  0  0
    0.4423   -0.3968    0.8052 H   0  0  0  0  0  0  0  0  0  0  0  0
    0.4137   -0.3778   -0.9763 H   0  0  0  0  0  0  0  0  0  0  0  0
    2.6080    2.2186   -0.1766 H   0  0  0  0  0  0  0  0  0  0  0  0
    4.9941    2.1160   -0.2599 H   0  0  0  0  0  0  0  0  0  0  0  0
    9.3837   -0.5205   -0.1715 H   0  0  0  0  0  0  0  0  0  0  0  0
   10.6009   -2.5853   -0.1367 H   0  0  0  0  0  0  0  0  0  0  0  0
    6.9411   -4.7931   -0.1057 H   0  0  0  0  0  0  0  0  0  0  0  0
    2.3776   -2.0491   -0.0710 H   0  0  0  0  0  0  0  0  0  0  0  0
   10.6720   -5.0185   -0.0983 H   0  0  0  0  0  0  0  0  0  0  0  0
    9.3246   -5.7478   -0.9883 H   0  0  0  0  0  0  0  0  0  0  0  0
    9.3148   -5.7257    0.7937 H   0  0  0  0  0  0  0  0  0  0  0  0
    8.1933    0.9905    0.6301 H   0  0  0  0  0  0  0  0  0  0  0  0
    6.8341    1.9425    0.3149 H   0  0  0  0  0  0  0  0  0  0  0  0
    8.6026    0.7152   -1.8624 H   0  0  0  0  0  0  0  0  0  0  0  0
    8.7584    2.3422   -1.2183 H   0  0  0  0  0  0  0  0  0  0  0  0
    6.4909    2.9054   -2.0655 H   0  0  0  0  0  0  0  0  0  0  0  0
    6.3463    1.3019   -2.7986 H   0  0  0  0  0  0  0  0  0  0  0  0
    9.3878    1.2235   -3.7789 H   0  0  0  0  0  0  0  0  0  0  0  0
    8.9889    1.9481   -5.3112 H   0  0  0  0  0  0  0  0  0  0  0  0
    7.9248    0.6916   -4.6450 H   0  0  0  0  0  0  0  0  0  0  0  0
    6.2977    4.0426   -4.1827 H   0  0  0  0  0  0  0  0  0  0  0  0
    6.0921    2.4815   -5.0131 H   0  0  0  0  0  0  0  0  0  0  0  0
    7.3626    3.6176   -5.5104 H   0  0  0  0  0  0  0  0  0  0  0  0
  1  2  1  0  0  0  0
  1 23  1  0  0  0  0
  1 24  1  0  0  0  0
  1 25  1  0  0  0  0
  2  3  1  0  0  0  0
  2 15  2  0  0  0  0
  3  4  2  0  0  0  0
  3 26  1  0  0  0  0
  4  5  1  0  0  0  0
  4 27  1  0  0  0  0
  5  6  1  0  0  0  0
  5 14  2  0  0  0  0
  6  7  1  0  0  0  0
  6 17  1  0  0  0  0
  7  8  2  0  0  0  0
  7 12  1  0  0  0  0
  8  9  1  0  0  0  0
  8 28  1  0  0  0  0
  9 10  2  0  0  0  0
  9 29  1  0  0  0  0
 10 11  1  0  0  0  0
 10 16  1  0  0  0  0
 11 12  2  0  0  0  0
 11 30  1  0  0  0  0
 12 13  1  0  0  0  0
 13 14  1  0  0  0  0
 14 15  1  0  0  0  0
 15 31  1  0  0  0  0
 16 32  1  0  0  0  0
 16 33  1  0  0  0  0
 16 34  1  0  0  0  0
 17 18  1  0  0  0  0
 17 35  1  0  0  0  0
 17 36  1  0  0  0  0
 18 19  1  0  0  0  0
 18 37  1  0  0  0  0
 18 38  1  0  0  0  0
 19 20  1  0  0  0  0
 19 39  1  0  0  0  0
 19 40  1  0  0  0  0
 20 21  1  0  0  0  0
 20 22  1  0  0  0  0
 21 41  1  0  0  0  0
 21 42  1  0  0  0  0
 21 43  1  0  0  0  0
 22 44  1  0  0  0  0
 22 45  1  0  0  0  0
 22 46  1  0  0  0  0
M  END
$$$$
Target_lig_201
 OpenBabel04172516553D

 44 46  0  0  0  0  0  0  0  0999 V2000
    1.1680   -0.4420   -0.1941 C   0  0  0  0  0  0  0  0  0  0  0  0
    2.5299   -0.0467   -0.0920 O   0  0  0  0  0  0  0  0  0  0  0  0
    3.1426   -0.2835    1.1160 C   0  0  0  0  0  0  0  0  0  0  0  0
    2.7847   -1.3480    1.9476 C   0  0  0  0  0  0  0  0  0  0  0  0
    3.4622   -1.5592    3.1467 C   0  0  0  0  0  0  0  0  0  0  0  0
    4.5163   -0.7231    3.5106 C   0  0  0  0  0  0  0  0  0  0  0  0
    4.9100    0.3507    2.6942 C   0  0  0  0  0  0  0  0  0  0  0  0
    5.9267    1.2335    3.1408 N   0  0  0  0  0  0  0  0  0  0  0  0
    5.9515    2.6050    2.8030 C   0  0  0  0  0  0  0  0  0  0  0  0
    6.4685    3.5488    3.7079 C   0  0  0  0  0  0  0  0  0  0  0  0
    6.3692    4.9201    3.4610 C   0  0  0  0  0  0  0  0  0  0  0  0
    5.7621    5.3745    2.2953 C   0  0  0  0  0  0  0  0  0  0  0  0
    5.2551    4.4571    1.3763 C   0  0  0  0  0  0  0  0  0  0  0  0
    5.3338    3.0809    1.6304 C   0  0  0  0  0  0  0  0  0  0  0  0
    4.6472    1.9573    0.4268 S   0  0  0  0  0  0  0  0  0  0  0  0
    4.2013    0.5760    1.4903 C   0  0  0  0  0  0  0  0  0  0  0  0
    7.2186    0.6146    3.5277 C   0  0  0  0  0  0  0  0  0  0  0  0
    7.9215   -0.0396    2.3286 C   0  0  0  0  0  0  0  0  0  0  0  0
    9.2685   -0.6754    2.7061 C   0  0  0  0  0  0  0  0  0  0  0  0
    9.1962   -1.6885    3.7753 N   0  0  0  0  0  0  0  0  0  0  0  0
    8.3821   -2.8436    3.3871 C   0  0  0  0  0  0  0  0  0  0  0  0
   10.5478   -2.1416    4.1277 C   0  0  0  0  0  0  0  0  0  0  0  0
    0.7609   -0.0013   -1.1096 H   0  0  0  0  0  0  0  0  0  0  0  0
    0.5771   -0.0653    0.6482 H   0  0  0  0  0  0  0  0  0  0  0  0
    1.0789   -1.5293   -0.2844 H   0  0  0  0  0  0  0  0  0  0  0  0
    1.9861   -2.0336    1.6856 H   0  0  0  0  0  0  0  0  0  0  0  0
    3.1624   -2.3686    3.8076 H   0  0  0  0  0  0  0  0  0  0  0  0
    4.9968   -0.8837    4.4721 H   0  0  0  0  0  0  0  0  0  0  0  0
    6.8918    3.2221    4.6538 H   0  0  0  0  0  0  0  0  0  0  0  0
    6.7418    5.6301    4.1946 H   0  0  0  0  0  0  0  0  0  0  0  0
    5.6679    6.4406    2.1078 H   0  0  0  0  0  0  0  0  0  0  0  0
    4.7761    4.8205    0.4705 H   0  0  0  0  0  0  0  0  0  0  0  0
    7.0551   -0.1186    4.3244 H   0  0  0  0  0  0  0  0  0  0  0  0
    7.9016    1.3543    3.9620 H   0  0  0  0  0  0  0  0  0  0  0  0
    8.1039    0.7200    1.5578 H   0  0  0  0  0  0  0  0  0  0  0  0
    7.2777   -0.7910    1.8575 H   0  0  0  0  0  0  0  0  0  0  0  0
    9.9343    0.1353    3.0307 H   0  0  0  0  0  0  0  0  0  0  0  0
    9.7207   -1.1063    1.8023 H   0  0  0  0  0  0  0  0  0  0  0  0
    7.3325   -2.5586    3.2538 H   0  0  0  0  0  0  0  0  0  0  0  0
    8.3863   -3.5985    4.1799 H   0  0  0  0  0  0  0  0  0  0  0  0
    8.7394   -3.3113    2.4620 H   0  0  0  0  0  0  0  0  0  0  0  0
   11.1644   -1.3006    4.4638 H   0  0  0  0  0  0  0  0  0  0  0  0
   11.0545   -2.6270    3.2849 H   0  0  0  0  0  0  0  0  0  0  0  0
   10.5095   -2.8520    4.9614 H   0  0  0  0  0  0  0  0  0  0  0  0
  1  2  1  0  0  0  0
  1 23  1  0  0  0  0
  1 24  1  0  0  0  0
  1 25  1  0  0  0  0
  2  3  1  0  0  0  0
  3  4  2  0  0  0  0
  3 16  1  0  0  0  0
  4  5  1  0  0  0  0
  4 26  1  0  0  0  0
  5  6  2  0  0  0  0
  5 27  1  0  0  0  0
  6  7  1  0  0  0  0
  6 28  1  0  0  0  0
  7  8  1  0  0  0  0
  7 16  2  0  0  0  0
  8  9  1  0  0  0  0
  8 17  1  0  0  0  0
  9 10  2  0  0  0  0
  9 14  1  0  0  0  0
 10 11  1  0  0  0  0
 10 29  1  0  0  0  0
 11 12  2  0  0  0  0
 11 30  1  0  0  0  0
 12 13  1  0  0  0  0
 12 31  1  0  0  0  0
 13 14  2  0  0  0  0
 13 32  1  0  0  0  0
 14 15  1  0  0  0  0
 15 16  1  0  0  0  0
 17 18  1  0  0  0  0
 17 33  1  0  0  0  0
 17 34  1  0  0  0  0
 18 19  1  0  0  0  0
 18 35  1  0  0  0  0
 18 36  1  0  0  0  0
 19 20  1  0  0  0  0
 19 37  1  0  0  0  0
 19 38  1  0  0  0  0
 20 21  1  0  0  0  0
 20 22  1  0  0  0  0
 21 39  1  0  0  0  0
 21 40  1  0  0  0  0
 21 41  1  0  0  0  0
 22 42  1  0  0  0  0
 22 43  1  0  0  0  0
 22 44  1  0  0  0  0
M  END
$$$$
Target_lig_202
 OpenBabel04172516553D

 41 43  0  0  0  0  0  0  0  0999 V2000
    2.7464   -4.7224    1.0722 C   0  0  0  0  0  0  0  0  0  0  0  0
    2.3550   -3.3907    1.5427 N   0  0  0  0  0  0  0  0  0  0  0  0
    0.8915   -3.3006    1.5569 C   0  0  0  0  0  0  0  0  0  0  0  0
    2.9119   -3.0990    2.8752 C   0  0  0  0  0  0  0  0  0  0  0  0
    4.4481   -3.0362    2.8940 C   0  0  0  0  0  0  0  0  0  0  0  0
    4.9936   -1.9763    1.9251 C   0  0  0  0  0  0  0  0  0  0  0  0
    6.4792   -1.9594    1.9237 N   0  0  0  0  0  0  0  0  0  0  0  0
    7.1345   -2.8550    1.0202 C   0  0  0  0  0  0  0  0  0  0  0  0
    6.4272   -3.6914    0.1259 C   0  0  0  0  0  0  0  0  0  0  0  0
    7.0539   -4.5725   -0.7673 C   0  0  0  0  0  0  0  0  0  0  0  0
    8.4292   -4.6397   -0.8061 C   0  0  0  0  0  0  0  0  0  0  0  0
    9.1708   -3.8314    0.0439 C   0  0  0  0  0  0  0  0  0  0  0  0
    8.5387   -2.9508    0.9545 C   0  0  0  0  0  0  0  0  0  0  0  0
    9.6446   -2.0010    1.9595 S   0  0  0  0  0  0  0  0  0  0  0  0
    8.5379   -0.9925    2.9131 C   0  0  0  0  0  0  0  0  0  0  0  0
    7.1315   -1.0672    2.8333 C   0  0  0  0  0  0  0  0  0  0  0  0
    6.4165   -0.1992    3.6954 C   0  0  0  0  0  0  0  0  0  0  0  0
    7.0645    0.6965    4.5529 C   0  0  0  0  0  0  0  0  0  0  0  0
    8.4388    0.7616    4.6024 C   0  0  0  0  0  0  0  0  0  0  0  0
    9.1757   -0.0853    3.7874 C   0  0  0  0  0  0  0  0  0  0  0  0
    6.3608    1.5389    5.3647 O   0  0  0  0  0  0  0  0  0  0  0  0
    2.3564   -4.8993    0.0654 H   0  0  0  0  0  0  0  0  0  0  0  0
    2.3973   -5.5148    1.7404 H   0  0  0  0  0  0  0  0  0  0  0  0
    3.8287   -4.8143    0.9863 H   0  0  0  0  0  0  0  0  0  0  0  0
    0.4862   -3.5299    0.5639 H   0  0  0  0  0  0  0  0  0  0  0  0
    0.5621   -2.2845    1.7994 H   0  0  0  0  0  0  0  0  0  0  0  0
    0.4426   -3.9952    2.2763 H   0  0  0  0  0  0  0  0  0  0  0  0
    2.5729   -3.8456    3.6053 H   0  0  0  0  0  0  0  0  0  0  0  0
    2.5345   -2.1272    3.2230 H   0  0  0  0  0  0  0  0  0  0  0  0
    4.8700   -4.0218    2.6666 H   0  0  0  0  0  0  0  0  0  0  0  0
    4.7775   -2.8171    3.9174 H   0  0  0  0  0  0  0  0  0  0  0  0
    4.5646   -0.9995    2.1654 H   0  0  0  0  0  0  0  0  0  0  0  0
    4.6018   -2.1135    0.9137 H   0  0  0  0  0  0  0  0  0  0  0  0
    5.3483   -3.6871    0.0715 H   0  0  0  0  0  0  0  0  0  0  0  0
    6.4516   -5.1929   -1.4272 H   0  0  0  0  0  0  0  0  0  0  0  0
    8.9299   -5.3103   -1.5001 H   0  0  0  0  0  0  0  0  0  0  0  0
   10.2536   -3.8846    0.0027 H   0  0  0  0  0  0  0  0  0  0  0  0
    5.3361   -0.1894    3.7232 H   0  0  0  0  0  0  0  0  0  0  0  0
    8.9365    1.4583    5.2698 H   0  0  0  0  0  0  0  0  0  0  0  0
   10.2622   -0.0366    3.8319 H   0  0  0  0  0  0  0  0  0  0  0  0
    5.4106    1.3907    5.2311 H   0  0  0  0  0  0  0  0  0  0  0  0
  1  2  1  0  0  0  0
  1 22  1  0  0  0  0
  1 23  1  0  0  0  0
  1 24  1  0  0  0  0
  2  3  1  0  0  0  0
  2  4  1  0  0  0  0
  3 25  1  0  0  0  0
  3 26  1  0  0  0  0
  3 27  1  0  0  0  0
  4  5  1  0  0  0  0
  4 28  1  0  0  0  0
  4 29  1  0  0  0  0
  5  6  1  0  0  0  0
  5 30  1  0  0  0  0
  5 31  1  0  0  0  0
  6  7  1  0  0  0  0
  6 32  1  0  0  0  0
  6 33  1  0  0  0  0
  7  8  1  0  0  0  0
  7 16  1  0  0  0  0
  8  9  2  0  0  0  0
  8 13  1  0  0  0  0
  9 10  1  0  0  0  0
  9 34  1  0  0  0  0
 10 11  2  0  0  0  0
 10 35  1  0  0  0  0
 11 12  1  0  0  0  0
 11 36  1  0  0  0  0
 12 13  2  0  0  0  0
 12 37  1  0  0  0  0
 13 14  1  0  0  0  0
 14 15  1  0  0  0  0
 15 16  2  0  0  0  0
 15 20  1  0  0  0  0
 16 17  1  0  0  0  0
 17 18  2  0  0  0  0
 17 38  1  0  0  0  0
 18 19  1  0  0  0  0
 18 21  1  0  0  0  0
 19 20  2  0  0  0  0
 19 39  1  0  0  0  0
 20 40  1  0  0  0  0
 21 41  1  0  0  0  0
M  END
$$$$
Target_lig_203
 OpenBabel04172516553D

 41 43  0  0  0  0  0  0  0  0999 V2000
    6.9826   -0.2902   -1.8819 C   0  0  0  0  0  0  0  0  0  0  0  0
    6.4320    1.0375   -2.1737 N   0  0  0  0  0  0  0  0  0  0  0  0
    4.9787    1.0139   -2.4166 C   0  0  0  0  0  0  0  0  0  0  0  0
    4.5990    0.2121   -3.6726 C   0  0  0  0  0  0  0  0  0  0  0  0
    3.0628    0.1013   -3.8191 C   0  0  0  0  0  0  0  0  0  0  0  0
    2.6433   -0.7304   -4.9737 N   0  0  0  0  0  0  0  0  0  0  0  0
    2.8932   -2.1437   -4.8484 C   0  0  0  0  0  0  0  0  0  0  0  0
    3.5161   -2.7156   -3.7090 C   0  0  0  0  0  0  0  0  0  0  0  0
    3.8117   -4.0786   -3.5961 C   0  0  0  0  0  0  0  0  0  0  0  0
    3.4241   -4.9473   -4.5924 C   0  0  0  0  0  0  0  0  0  0  0  0
    2.7863   -4.4353   -5.7163 C   0  0  0  0  0  0  0  0  0  0  0  0
    2.5432   -3.0495   -5.8604 C   0  0  0  0  0  0  0  0  0  0  0  0
    1.7967   -2.5894   -7.3966 S   0  0  0  0  0  0  0  0  0  0  0  0
    1.5940   -0.8283   -7.2281 C   0  0  0  0  0  0  0  0  0  0  0  0
    0.9801   -0.1792   -8.3286 C   0  0  0  0  0  0  0  0  0  0  0  0
    0.7226    1.1806   -8.3382 C   0  0  0  0  0  0  0  0  0  0  0  0
    1.0557    1.9104   -7.2125 C   0  0  0  0  0  0  0  0  0  0  0  0
    1.6711    1.2836   -6.1143 C   0  0  0  0  0  0  0  0  0  0  0  0
    1.9855   -0.1056   -6.0775 C   0  0  0  0  0  0  0  0  0  0  0  0
    0.6088   -0.8587   -9.4650 O   0  0  0  0  0  0  0  0  0  0  0  0
    6.7394    1.9455   -1.0659 C   0  0  0  0  0  0  0  0  0  0  0  0
    6.9216   -0.9522   -2.7520 H   0  0  0  0  0  0  0  0  0  0  0  0
    6.4750   -0.7756   -1.0400 H   0  0  0  0  0  0  0  0  0  0  0  0
    8.0504   -0.2235   -1.6477 H   0  0  0  0  0  0  0  0  0  0  0  0
    4.6240    2.0412   -2.5677 H   0  0  0  0  0  0  0  0  0  0  0  0
    4.4507    0.6201   -1.5377 H   0  0  0  0  0  0  0  0  0  0  0  0
    5.0504   -0.7740   -3.6035 H   0  0  0  0  0  0  0  0  0  0  0  0
    5.0379    0.6628   -4.5672 H   0  0  0  0  0  0  0  0  0  0  0  0
    2.6987    1.1302   -3.8522 H   0  0  0  0  0  0  0  0  0  0  0  0
    2.6038   -0.2819   -2.9021 H   0  0  0  0  0  0  0  0  0  0  0  0
    3.8112   -2.1250   -2.8502 H   0  0  0  0  0  0  0  0  0  0  0  0
    4.3402   -4.4464   -2.7190 H   0  0  0  0  0  0  0  0  0  0  0  0
    3.6102   -6.0126   -4.5011 H   0  0  0  0  0  0  0  0  0  0  0  0
    2.4842   -5.1285   -6.5002 H   0  0  0  0  0  0  0  0  0  0  0  0
    0.2642    1.6519   -9.1984 H   0  0  0  0  0  0  0  0  0  0  0  0
    0.8447    2.9741   -7.1795 H   0  0  0  0  0  0  0  0  0  0  0  0
    1.8659    1.9451   -5.2871 H   0  0  0  0  0  0  0  0  0  0  0  0
    0.8646   -1.7914   -9.3166 H   0  0  0  0  0  0  0  0  0  0  0  0
    7.8222    2.0131   -0.9145 H   0  0  0  0  0  0  0  0  0  0  0  0
    6.2782    1.6227   -0.1255 H   0  0  0  0  0  0  0  0  0  0  0  0
    6.3921    2.9604   -1.2921 H   0  0  0  0  0  0  0  0  0  0  0  0
  1  2  1  0  0  0  0
  1 22  1  0  0  0  0
  1 23  1  0  0  0  0
  1 24  1  0  0  0  0
  2  3  1  0  0  0  0
  2 21  1  0  0  0  0
  3  4  1  0  0  0  0
  3 25  1  0  0  0  0
  3 26  1  0  0  0  0
  4  5  1  0  0  0  0
  4 27  1  0  0  0  0
  4 28  1  0  0  0  0
  5  6  1  0  0  0  0
  5 29  1  0  0  0  0
  5 30  1  0  0  0  0
  6  7  1  0  0  0  0
  6 19  1  0  0  0  0
  7  8  2  0  0  0  0
  7 12  1  0  0  0  0
  8  9  1  0  0  0  0
  8 31  1  0  0  0  0
  9 10  2  0  0  0  0
  9 32  1  0  0  0  0
 10 11  1  0  0  0  0
 10 33  1  0  0  0  0
 11 12  2  0  0  0  0
 11 34  1  0  0  0  0
 12 13  1  0  0  0  0
 13 14  1  0  0  0  0
 14 15  1  0  0  0  0
 14 19  2  0  0  0  0
 15 16  2  0  0  0  0
 15 20  1  0  0  0  0
 16 17  1  0  0  0  0
 16 35  1  0  0  0  0
 17 18  2  0  0  0  0
 17 36  1  0  0  0  0
 18 19  1  0  0  0  0
 18 37  1  0  0  0  0
 20 38  1  0  0  0  0
 21 39  1  0  0  0  0
 21 40  1  0  0  0  0
 21 41  1  0  0  0  0
M  END
$$$$
Target_lig_204
 OpenBabel04172516553D

 43 45  0  0  0  0  0  0  0  0999 V2000
    2.6594    1.4481   -4.9389 C   0  0  0  0  0  0  0  0  0  0  0  0
    2.3030    1.5886   -3.5252 N   0  0  0  0  0  0  0  0  0  0  0  0
    0.8420    1.5921   -3.3884 C   0  0  0  0  0  0  0  0  0  0  0  0
    2.8874    0.5206   -2.6954 C   0  0  0  0  0  0  0  0  0  0  0  0
    4.4233    0.5221   -2.6490 C   0  0  0  0  0  0  0  0  0  0  0  0
    4.9976    1.8637   -2.1695 C   0  0  0  0  0  0  0  0  0  0  0  0
    6.4798    1.8565   -2.1726 N   0  0  0  0  0  0  0  0  0  0  0  0
    7.1360    1.6944   -3.4164 C   0  0  0  0  0  0  0  0  0  0  0  0
    6.7377    2.4334   -4.5439 C   0  0  0  0  0  0  0  0  0  0  0  0
    7.4464    2.3621   -5.7472 C   0  0  0  0  0  0  0  0  0  0  0  0
    8.5591    1.5359   -5.8512 C   0  0  0  0  0  0  0  0  0  0  0  0
    8.9647    0.7799   -4.7530 C   0  0  0  0  0  0  0  0  0  0  0  0
    8.2705    0.8658   -3.5379 C   0  0  0  0  0  0  0  0  0  0  0  0
    8.8552   -0.1236   -2.1672 S   0  0  0  0  0  0  0  0  0  0  0  0
    8.2649    0.8653   -0.8020 C   0  0  0  0  0  0  0  0  0  0  0  0
    7.1413    1.7055   -0.9344 C   0  0  0  0  0  0  0  0  0  0  0  0
    6.7803    2.5032    0.1673 C   0  0  0  0  0  0  0  0  0  0  0  0
    7.4986    2.4681    1.3737 C   0  0  0  0  0  0  0  0  0  0  0  0
    8.5804    1.5885    1.4927 C   0  0  0  0  0  0  0  0  0  0  0  0
    8.9591    0.7909    0.4120 C   0  0  0  0  0  0  0  0  0  0  0  0
    7.1394    3.3868    2.5146 C   0  0  0  0  0  0  0  0  0  0  0  0
    6.0955    4.2189    2.2431 F   0  0  0  0  0  0  0  0  0  0  0  0
    6.7837    2.7019    3.6388 F   0  0  0  0  0  0  0  0  0  0  0  0
    8.1745    4.1938    2.8789 F   0  0  0  0  0  0  0  0  0  0  0  0
    2.2057    2.2510   -5.5299 H   0  0  0  0  0  0  0  0  0  0  0  0
    2.3335    0.4873   -5.3538 H   0  0  0  0  0  0  0  0  0  0  0  0
    3.7394    1.5424   -5.0889 H   0  0  0  0  0  0  0  0  0  0  0  0
    0.3995    2.3941   -3.9900 H   0  0  0  0  0  0  0  0  0  0  0  0
    0.5523    1.7866   -2.3499 H   0  0  0  0  0  0  0  0  0  0  0  0
    0.3948    0.6412   -3.7012 H   0  0  0  0  0  0  0  0  0  0  0  0
    2.5442   -0.4642   -3.0381 H   0  0  0  0  0  0  0  0  0  0  0  0
    2.5290    0.6354   -1.6638 H   0  0  0  0  0  0  0  0  0  0  0  0
    4.8218    0.2482   -3.6323 H   0  0  0  0  0  0  0  0  0  0  0  0
    4.7515   -0.2740   -1.9671 H   0  0  0  0  0  0  0  0  0  0  0  0
    4.5965    2.0490   -1.1663 H   0  0  0  0  0  0  0  0  0  0  0  0
    4.6309    2.6957   -2.7799 H   0  0  0  0  0  0  0  0  0  0  0  0
    5.9005    3.1228   -4.4852 H   0  0  0  0  0  0  0  0  0  0  0  0
    7.1388    2.9728   -6.5921 H   0  0  0  0  0  0  0  0  0  0  0  0
    9.1196    1.4886   -6.7813 H   0  0  0  0  0  0  0  0  0  0  0  0
    9.8367    0.1367   -4.8439 H   0  0  0  0  0  0  0  0  0  0  0  0
    5.9754    3.2286    0.0596 H   0  0  0  0  0  0  0  0  0  0  0  0
    9.1530    1.5425    2.4174 H   0  0  0  0  0  0  0  0  0  0  0  0
    9.8188    0.1321    0.5139 H   0  0  0  0  0  0  0  0  0  0  0  0
  1  2  1  0  0  0  0
  1 25  1  0  0  0  0
  1 26  1  0  0  0  0
  1 27  1  0  0  0  0
  2  3  1  0  0  0  0
  2  4  1  0  0  0  0
  3 28  1  0  0  0  0
  3 29  1  0  0  0  0
  3 30  1  0  0  0  0
  4  5  1  0  0  0  0
  4 31  1  0  0  0  0
  4 32  1  0  0  0  0
  5  6  1  0  0  0  0
  5 33  1  0  0  0  0
  5 34  1  0  0  0  0
  6  7  1  0  0  0  0
  6 35  1  0  0  0  0
  6 36  1  0  0  0  0
  7  8  1  0  0  0  0
  7 16  1  0  0  0  0
  8  9  2  0  0  0  0
  8 13  1  0  0  0  0
  9 10  1  0  0  0  0
  9 37  1  0  0  0  0
 10 11  2  0  0  0  0
 10 38  1  0  0  0  0
 11 12  1  0  0  0  0
 11 39  1  0  0  0  0
 12 13  2  0  0  0  0
 12 40  1  0  0  0  0
 13 14  1  0  0  0  0
 14 15  1  0  0  0  0
 15 16  2  0  0  0  0
 15 20  1  0  0  0  0
 16 17  1  0  0  0  0
 17 18  2  0  0  0  0
 17 41  1  0  0  0  0
 18 19  1  0  0  0  0
 18 21  1  0  0  0  0
 19 20  2  0  0  0  0
 19 42  1  0  0  0  0
 20 43  1  0  0  0  0
 21 22  1  0  0  0  0
 21 23  1  0  0  0  0
 21 24  1  0  0  0  0
M  END
$$$$
Target_lig_205
 OpenBabel04172516553D

 43 45  0  0  0  0  0  0  0  0999 V2000
    7.0092   -0.4276   -1.9352 C   0  0  0  0  0  0  0  0  0  0  0  0
    6.3777    0.8008   -2.4335 N   0  0  0  0  0  0  0  0  0  0  0  0
    4.9226    0.6438   -2.6122 C   0  0  0  0  0  0  0  0  0  0  0  0
    4.5294   -0.3204   -3.7447 C   0  0  0  0  0  0  0  0  0  0  0  0
    3.0100   -0.5777   -3.7217 C   0  0  0  0  0  0  0  0  0  0  0  0
    2.5847   -1.6145   -4.7001 N   0  0  0  0  0  0  0  0  0  0  0  0
    2.9147   -2.9709   -4.3592 C   0  0  0  0  0  0  0  0  0  0  0  0
    3.5620   -3.3195   -3.1473 C   0  0  0  0  0  0  0  0  0  0  0  0
    3.9473   -4.6296   -2.8334 C   0  0  0  0  0  0  0  0  0  0  0  0
    3.6535   -5.6617   -3.7033 C   0  0  0  0  0  0  0  0  0  0  0  0
    2.9808   -5.3725   -4.8826 C   0  0  0  0  0  0  0  0  0  0  0  0
    2.6229   -4.0487   -5.2182 C   0  0  0  0  0  0  0  0  0  0  0  0
    1.8108   -3.8805   -6.7820 S   0  0  0  0  0  0  0  0  0  0  0  0
    1.4930   -2.1379   -6.8657 C   0  0  0  0  0  0  0  0  0  0  0  0
    0.7938   -1.7347   -8.0316 C   0  0  0  0  0  0  0  0  0  0  0  0
    0.4563   -0.4073   -8.2618 C   0  0  0  0  0  0  0  0  0  0  0  0
    0.8122    0.5204   -7.2956 C   0  0  0  0  0  0  0  0  0  0  0  0
    1.5139    0.1294   -6.1409 C   0  0  0  0  0  0  0  0  0  0  0  0
    1.8831   -1.2098   -5.8778 C   0  0  0  0  0  0  0  0  0  0  0  0
   -0.2739    0.0093   -9.5030 C   0  0  0  0  0  0  0  0  0  0  0  0
    6.6518    1.8938   -1.4929 C   0  0  0  0  0  0  0  0  0  0  0  0
    6.9671   -1.2286   -2.6782 H   0  0  0  0  0  0  0  0  0  0  0  0
    6.5453   -0.7824   -1.0076 H   0  0  0  0  0  0  0  0  0  0  0  0
    8.0753   -0.2606   -1.7402 H   0  0  0  0  0  0  0  0  0  0  0  0
    4.4900    1.6217   -2.8627 H   0  0  0  0  0  0  0  0  0  0  0  0
    4.4608    0.3284   -1.6670 H   0  0  0  0  0  0  0  0  0  0  0  0
    5.0752   -1.2598   -3.6438 H   0  0  0  0  0  0  0  0  0  0  0  0
    4.8279    0.0950   -4.7145 H   0  0  0  0  0  0  0  0  0  0  0  0
    2.5110    0.3832   -3.8502 H   0  0  0  0  0  0  0  0  0  0  0  0
    2.6743   -0.8662   -2.7167 H   0  0  0  0  0  0  0  0  0  0  0  0
    3.8126   -2.5786   -2.3963 H   0  0  0  0  0  0  0  0  0  0  0  0
    4.4786   -4.8308   -1.9068 H   0  0  0  0  0  0  0  0  0  0  0  0
    3.9407   -6.6826   -3.4703 H   0  0  0  0  0  0  0  0  0  0  0  0
    2.7390   -6.1920   -5.5571 H   0  0  0  0  0  0  0  0  0  0  0  0
    0.5213   -2.4874   -8.7745 H   0  0  0  0  0  0  0  0  0  0  0  0
    0.5524    1.5706   -7.4278 H   0  0  0  0  0  0  0  0  0  0  0  0
    1.7397    0.9437   -5.4620 H   0  0  0  0  0  0  0  0  0  0  0  0
   -0.4623   -0.8437  -10.1629 H   0  0  0  0  0  0  0  0  0  0  0  0
    0.3210    0.7365  -10.0637 H   0  0  0  0  0  0  0  0  0  0  0  0
   -1.2420    0.4520   -9.2459 H   0  0  0  0  0  0  0  0  0  0  0  0
    7.7317    2.0482   -1.3849 H   0  0  0  0  0  0  0  0  0  0  0  0
    6.2318    1.6980   -0.4993 H   0  0  0  0  0  0  0  0  0  0  0  0
    6.2382    2.8379   -1.8637 H   0  0  0  0  0  0  0  0  0  0  0  0
  1  2  1  0  0  0  0
  1 22  1  0  0  0  0
  1 23  1  0  0  0  0
  1 24  1  0  0  0  0
  2  3  1  0  0  0  0
  2 21  1  0  0  0  0
  3  4  1  0  0  0  0
  3 25  1  0  0  0  0
  3 26  1  0  0  0  0
  4  5  1  0  0  0  0
  4 27  1  0  0  0  0
  4 28  1  0  0  0  0
  5  6  1  0  0  0  0
  5 29  1  0  0  0  0
  5 30  1  0  0  0  0
  6  7  1  0  0  0  0
  6 19  1  0  0  0  0
  7  8  2  0  0  0  0
  7 12  1  0  0  0  0
  8  9  1  0  0  0  0
  8 31  1  0  0  0  0
  9 10  2  0  0  0  0
  9 32  1  0  0  0  0
 10 11  1  0  0  0  0
 10 33  1  0  0  0  0
 11 12  2  0  0  0  0
 11 34  1  0  0  0  0
 12 13  1  0  0  0  0
 13 14  1  0  0  0  0
 14 15  1  0  0  0  0
 14 19  2  0  0  0  0
 15 16  2  0  0  0  0
 15 35  1  0  0  0  0
 16 17  1  0  0  0  0
 16 20  1  0  0  0  0
 17 18  2  0  0  0  0
 17 36  1  0  0  0  0
 18 19  1  0  0  0  0
 18 37  1  0  0  0  0
 20 38  1  0  0  0  0
 20 39  1  0  0  0  0
 20 40  1  0  0  0  0
 21 41  1  0  0  0  0
 21 42  1  0  0  0  0
 21 43  1  0  0  0  0
M  END
$$$$
Target_lig_206
 OpenBabel04172516553D

 40 42  0  0  0  0  0  0  0  0999 V2000
    2.9357   -0.7144    4.0620 C   0  0  0  0  0  0  0  0  0  0  0  0
    2.5018    0.4415    3.2742 N   0  0  0  0  0  0  0  0  0  0  0  0
    1.0382    0.5272    3.2977 C   0  0  0  0  0  0  0  0  0  0  0  0
    3.0937    1.7003    3.7615 C   0  0  0  0  0  0  0  0  0  0  0  0
    4.6231    1.7687    3.6488 C   0  0  0  0  0  0  0  0  0  0  0  0
    5.1208    1.5390    2.2121 C   0  0  0  0  0  0  0  0  0  0  0  0
    6.6005    1.5407    2.1402 N   0  0  0  0  0  0  0  0  0  0  0  0
    7.2759    0.5176    2.8536 C   0  0  0  0  0  0  0  0  0  0  0  0
    6.8978   -0.8290    2.7089 C   0  0  0  0  0  0  0  0  0  0  0  0
    7.6114   -1.8560    3.3338 C   0  0  0  0  0  0  0  0  0  0  0  0
    8.7126   -1.5548    4.1287 C   0  0  0  0  0  0  0  0  0  0  0  0
    9.0984   -0.2279    4.2984 C   0  0  0  0  0  0  0  0  0  0  0  0
    8.3989    0.8038    3.6571 C   0  0  0  0  0  0  0  0  0  0  0  0
    8.9596    2.4782    3.9246 S   0  0  0  0  0  0  0  0  0  0  0  0
    8.3496    3.2508    2.4345 C   0  0  0  0  0  0  0  0  0  0  0  0
    9.0285    4.3835    1.9630 C   0  0  0  0  0  0  0  0  0  0  0  0
    8.6247    5.0090    0.7854 C   0  0  0  0  0  0  0  0  0  0  0  0
    7.5284    4.5173    0.0858 C   0  0  0  0  0  0  0  0  0  0  0  0
    6.8342    3.4027    0.5664 C   0  0  0  0  0  0  0  0  0  0  0  0
    7.2275    2.7467    1.7457 C   0  0  0  0  0  0  0  0  0  0  0  0
    2.4789   -1.6332    3.6744 H   0  0  0  0  0  0  0  0  0  0  0  0
    2.6704   -0.6186    5.1209 H   0  0  0  0  0  0  0  0  0  0  0  0
    4.0153   -0.8678    3.9857 H   0  0  0  0  0  0  0  0  0  0  0  0
    0.5907   -0.4001    2.9294 H   0  0  0  0  0  0  0  0  0  0  0  0
    0.6887    1.3258    2.6308 H   0  0  0  0  0  0  0  0  0  0  0  0
    0.6521    0.7219    4.3057 H   0  0  0  0  0  0  0  0  0  0  0  0
    2.8071    1.8785    4.8080 H   0  0  0  0  0  0  0  0  0  0  0  0
    2.6822    2.5356    3.1787 H   0  0  0  0  0  0  0  0  0  0  0  0
    5.0730    1.0510    4.3434 H   0  0  0  0  0  0  0  0  0  0  0  0
    4.9541    2.7572    3.9920 H   0  0  0  0  0  0  0  0  0  0  0  0
    4.6825    2.3207    1.5797 H   0  0  0  0  0  0  0  0  0  0  0  0
    4.7323    0.5998    1.8055 H   0  0  0  0  0  0  0  0  0  0  0  0
    6.0695   -1.1013    2.0611 H   0  0  0  0  0  0  0  0  0  0  0  0
    7.3180   -2.8903    3.1794 H   0  0  0  0  0  0  0  0  0  0  0  0
    9.2772   -2.3513    4.6054 H   0  0  0  0  0  0  0  0  0  0  0  0
    9.9607   -0.0025    4.9216 H   0  0  0  0  0  0  0  0  0  0  0  0
    9.8932    4.7680    2.4988 H   0  0  0  0  0  0  0  0  0  0  0  0
    9.1782    5.8640    0.4069 H   0  0  0  0  0  0  0  0  0  0  0  0
    7.2277    4.9811   -0.8496 H   0  0  0  0  0  0  0  0  0  0  0  0
    6.0198    3.0066   -0.0356 H   0  0  0  0  0  0  0  0  0  0  0  0
  1  2  1  0  0  0  0
  1 21  1  0  0  0  0
  1 22  1  0  0  0  0
  1 23  1  0  0  0  0
  2  3  1  0  0  0  0
  2  4  1  0  0  0  0
  3 24  1  0  0  0  0
  3 25  1  0  0  0  0
  3 26  1  0  0  0  0
  4  5  1  0  0  0  0
  4 27  1  0  0  0  0
  4 28  1  0  0  0  0
  5  6  1  0  0  0  0
  5 29  1  0  0  0  0
  5 30  1  0  0  0  0
  6  7  1  0  0  0  0
  6 31  1  0  0  0  0
  6 32  1  0  0  0  0
  7  8  1  0  0  0  0
  7 20  1  0  0  0  0
  8  9  2  0  0  0  0
  8 13  1  0  0  0  0
  9 10  1  0  0  0  0
  9 33  1  0  0  0  0
 10 11  2  0  0  0  0
 10 34  1  0  0  0  0
 11 12  1  0  0  0  0
 11 35  1  0  0  0  0
 12 13  2  0  0  0  0
 12 36  1  0  0  0  0
 13 14  1  0  0  0  0
 14 15  1  0  0  0  0
 15 16  2  0  0  0  0
 15 20  1  0  0  0  0
 16 17  1  0  0  0  0
 16 37  1  0  0  0  0
 17 18  2  0  0  0  0
 17 38  1  0  0  0  0
 18 19  1  0  0  0  0
 18 39  1  0  0  0  0
 19 20  2  0  0  0  0
 19 40  1  0  0  0  0
M  END
$$$$
Target_lig_207
 OpenBabel04172516553D

 40 42  0  0  0  0  0  0  0  0999 V2000
    2.6972   -3.4191    3.4321 C   0  0  0  0  0  0  0  0  0  0  0  0
    2.3559   -2.0307    3.1142 N   0  0  0  0  0  0  0  0  0  0  0  0
    0.8950   -1.8955    3.0704 C   0  0  0  0  0  0  0  0  0  0  0  0
    2.9220   -1.0799    4.0883 C   0  0  0  0  0  0  0  0  0  0  0  0
    4.4537   -0.9859    4.0617 C   0  0  0  0  0  0  0  0  0  0  0  0
    4.9995   -0.5828    2.6849 C   0  0  0  0  0  0  0  0  0  0  0  0
    6.4869   -0.5663    2.6886 N   0  0  0  0  0  0  0  0  0  0  0  0
    7.1484   -1.7976    2.3811 C   0  0  0  0  0  0  0  0  0  0  0  0
    6.4445   -2.9791    2.0466 C   0  0  0  0  0  0  0  0  0  0  0  0
    7.0787   -4.1910    1.7410 C   0  0  0  0  0  0  0  0  0  0  0  0
    8.4585   -4.2690    1.7551 C   0  0  0  0  0  0  0  0  0  0  0  0
    9.1890   -3.1341    2.0752 C   0  0  0  0  0  0  0  0  0  0  0  0
    8.5524   -1.9116    2.3847 C   0  0  0  0  0  0  0  0  0  0  0  0
    9.6551   -0.5747    2.7595 S   0  0  0  0  0  0  0  0  0  0  0  0
    8.5417    0.7735    3.0592 C   0  0  0  0  0  0  0  0  0  0  0  0
    7.1350    0.6610    3.0272 C   0  0  0  0  0  0  0  0  0  0  0  0
    6.4178    1.8424    3.3369 C   0  0  0  0  0  0  0  0  0  0  0  0
    7.0561    3.0580    3.6126 C   0  0  0  0  0  0  0  0  0  0  0  0
    8.4358    3.1450    3.6158 C   0  0  0  0  0  0  0  0  0  0  0  0
    9.1758    2.0009    3.3483 C   0  0  0  0  0  0  0  0  0  0  0  0
    6.1136    4.4605    3.9446 Cl  0  0  0  0  0  0  0  0  0  0  0  0
    2.2940   -4.0914    2.6667 H   0  0  0  0  0  0  0  0  0  0  0  0
    2.3061   -3.7287    4.4074 H   0  0  0  0  0  0  0  0  0  0  0  0
    3.7759   -3.5815    3.4336 H   0  0  0  0  0  0  0  0  0  0  0  0
    0.4684   -2.5785    2.3273 H   0  0  0  0  0  0  0  0  0  0  0  0
    0.6075   -0.8829    2.7653 H   0  0  0  0  0  0  0  0  0  0  0  0
    0.4321   -2.1098    4.0407 H   0  0  0  0  0  0  0  0  0  0  0  0
    2.5951   -1.3326    5.1056 H   0  0  0  0  0  0  0  0  0  0  0  0
    2.5317   -0.0754    3.8760 H   0  0  0  0  0  0  0  0  0  0  0  0
    4.8968   -1.9312    4.3934 H   0  0  0  0  0  0  0  0  0  0  0  0
    4.7624   -0.2421    4.8080 H   0  0  0  0  0  0  0  0  0  0  0  0
    4.5760    0.3793    2.3779 H   0  0  0  0  0  0  0  0  0  0  0  0
    4.6114   -1.2280    1.8908 H   0  0  0  0  0  0  0  0  0  0  0  0
    5.3637   -3.0109    2.0020 H   0  0  0  0  0  0  0  0  0  0  0  0
    6.4835   -5.0653    1.4889 H   0  0  0  0  0  0  0  0  0  0  0  0
    8.9621   -5.2002    1.5160 H   0  0  0  0  0  0  0  0  0  0  0  0
   10.2757   -3.2010    2.0809 H   0  0  0  0  0  0  0  0  0  0  0  0
    5.3364    1.8612    3.3755 H   0  0  0  0  0  0  0  0  0  0  0  0
    8.9381    4.0843    3.8268 H   0  0  0  0  0  0  0  0  0  0  0  0
   10.2630    2.0687    3.3630 H   0  0  0  0  0  0  0  0  0  0  0  0
  1  2  1  0  0  0  0
  1 22  1  0  0  0  0
  1 23  1  0  0  0  0
  1 24  1  0  0  0  0
  2  3  1  0  0  0  0
  2  4  1  0  0  0  0
  3 25  1  0  0  0  0
  3 26  1  0  0  0  0
  3 27  1  0  0  0  0
  4  5  1  0  0  0  0
  4 28  1  0  0  0  0
  4 29  1  0  0  0  0
  5  6  1  0  0  0  0
  5 30  1  0  0  0  0
  5 31  1  0  0  0  0
  6  7  1  0  0  0  0
  6 32  1  0  0  0  0
  6 33  1  0  0  0  0
  7  8  1  0  0  0  0
  7 16  1  0  0  0  0
  8  9  2  0  0  0  0
  8 13  1  0  0  0  0
  9 10  1  0  0  0  0
  9 34  1  0  0  0  0
 10 11  2  0  0  0  0
 10 35  1  0  0  0  0
 11 12  1  0  0  0  0
 11 36  1  0  0  0  0
 12 13  2  0  0  0  0
 12 37  1  0  0  0  0
 13 14  1  0  0  0  0
 14 15  1  0  0  0  0
 15 16  2  0  0  0  0
 15 20  1  0  0  0  0
 16 17  1  0  0  0  0
 17 18  2  0  0  0  0
 17 38  1  0  0  0  0
 18 19  1  0  0  0  0
 18 21  1  0  0  0  0
 19 20  2  0  0  0  0
 19 39  1  0  0  0  0
 20 40  1  0  0  0  0
M  END
$$$$
Target_lig_208
 OpenBabel04172516563D

 59 62  0  0  1  0  0  0  0  0999 V2000
    0.1272   -3.0581   -1.1053 C   0  0  0  0  0  0  0  0  0  0  0  0
    0.6759   -3.6195   -2.2704 C   0  0  0  0  0  0  0  0  0  0  0  0
    1.7546   -2.9920   -2.8961 C   0  0  0  0  0  0  0  0  0  0  0  0
    2.2583   -1.7983   -2.3701 C   0  0  0  0  0  0  0  0  0  0  0  0
    1.6999   -1.2357   -1.2122 C   0  0  0  0  0  0  0  0  0  0  0  0
    2.3588    0.3154   -0.6168 S   0  0  0  0  0  0  0  0  0  0  0  0
    0.9236    0.9401    0.2494 C   0  0  0  0  0  0  0  0  0  0  0  0
    0.7512    2.3273    0.3516 C   0  0  0  0  0  0  0  0  0  0  0  0
   -0.3678    2.8537    0.9914 C   0  0  0  0  0  0  0  0  0  0  0  0
   -1.3061    2.0055    1.5596 C   0  0  0  0  0  0  0  0  0  0  0  0
   -1.1324    0.6207    1.4821 C   0  0  0  0  0  0  0  0  0  0  0  0
   -0.0244    0.0686    0.8229 C   0  0  0  0  0  0  0  0  0  0  0  0
    0.0480   -1.3305    0.6146 N   0  0  0  0  0  0  0  0  0  0  0  0
    0.6470   -1.8863   -0.5382 C   0  0  0  0  0  0  0  0  0  0  0  0
    0.0150   -2.1734    1.8352 C   0  0  0  0  0  0  0  0  0  0  0  0
    1.4152   -2.4570    2.4110 C   0  0  0  0  0  0  0  0  0  0  0  0
    1.3324   -3.2902    3.7026 C   0  0  0  0  0  0  0  0  0  0  0  0
    2.7324   -3.5793    4.2722 C   0  0  0  0  0  0  0  0  0  0  0  0
    2.7406   -4.3569    5.5301 N   0  0  0  0  0  0  0  0  0  0  0  0
    2.1276   -5.6850    5.3667 C   0  0  0  0  0  0  0  0  0  0  0  0
    2.1177   -6.4592    6.6838 C   0  0  0  0  0  0  0  0  0  0  0  0
    3.5251   -6.6265    7.2353 C   0  0  0  0  0  0  0  0  0  0  0  0
    4.2233   -5.2656    7.3420 C   0  0  2  0  0  0  0  0  0  0  0  0
    4.1329   -4.4941    6.0133 C   0  0  0  0  0  0  0  0  0  0  0  0
    5.6871   -5.4367    7.7613 C   0  0  0  0  0  0  0  0  0  0  0  0
    5.7848   -6.0855    9.0236 O   0  0  0  0  0  0  0  0  0  0  0  0
    0.0945   -4.9014   -2.7448 C   0  0  0  0  0  0  0  0  0  0  0  0
   -0.4626   -5.6354   -1.9237 O   0  0  0  0  0  0  0  0  0  0  0  0
    0.1557   -5.2994   -4.1952 C   0  0  0  0  0  0  0  0  0  0  0  0
   -0.7577   -3.5148   -0.6655 H   0  0  0  0  0  0  0  0  0  0  0  0
    2.2274   -3.4109   -3.7801 H   0  0  0  0  0  0  0  0  0  0  0  0
    3.0906   -1.3041   -2.8679 H   0  0  0  0  0  0  0  0  0  0  0  0
    1.4807    3.0044   -0.0904 H   0  0  0  0  0  0  0  0  0  0  0  0
   -0.5147    3.9328    1.0300 H   0  0  0  0  0  0  0  0  0  0  0  0
   -2.1967    2.4097    2.0386 H   0  0  0  0  0  0  0  0  0  0  0  0
   -1.9105   -0.0261    1.8782 H   0  0  0  0  0  0  0  0  0  0  0  0
   -0.4925   -3.1209    1.6218 H   0  0  0  0  0  0  0  0  0  0  0  0
   -0.5832   -1.6978    2.6219 H   0  0  0  0  0  0  0  0  0  0  0  0
    1.9427   -1.5171    2.6133 H   0  0  0  0  0  0  0  0  0  0  0  0
    2.0154   -3.0091    1.6779 H   0  0  0  0  0  0  0  0  0  0  0  0
    0.8167   -4.2257    3.4634 H   0  0  0  0  0  0  0  0  0  0  0  0
    0.7274   -2.7653    4.4526 H   0  0  0  0  0  0  0  0  0  0  0  0
    3.2121   -2.6099    4.4680 H   0  0  0  0  0  0  0  0  0  0  0  0
    3.3352   -4.0872    3.5101 H   0  0  0  0  0  0  0  0  0  0  0  0
    2.6542   -6.2649    4.5979 H   0  0  0  0  0  0  0  0  0  0  0  0
    1.0834   -5.5921    5.0530 H   0  0  0  0  0  0  0  0  0  0  0  0
    1.6627   -7.4441    6.5296 H   0  0  0  0  0  0  0  0  0  0  0  0
    1.4948   -5.9311    7.4172 H   0  0  0  0  0  0  0  0  0  0  0  0
    4.0962   -7.2913    6.5746 H   0  0  0  0  0  0  0  0  0  0  0  0
    3.4765   -7.1138    8.2158 H   0  0  0  0  0  0  0  0  0  0  0  0
    3.7069   -4.6879    8.1214 H   0  0  0  0  0  0  0  0  0  0  0  0
    4.7520   -4.9923    5.2540 H   0  0  0  0  0  0  0  0  0  0  0  0
    4.5590   -3.4953    6.1699 H   0  0  0  0  0  0  0  0  0  0  0  0
    6.1912   -4.4684    7.8383 H   0  0  0  0  0  0  0  0  0  0  0  0
    6.2360   -6.0433    7.0325 H   0  0  0  0  0  0  0  0  0  0  0  0
    5.2389   -5.5852    9.6541 H   0  0  0  0  0  0  0  0  0  0  0  0
    0.6141   -4.5425   -4.8288 H   0  0  0  0  0  0  0  0  0  0  0  0
   -0.8682   -5.4594   -4.5481 H   0  0  0  0  0  0  0  0  0  0  0  0
    0.7176   -6.2328   -4.2805 H   0  0  0  0  0  0  0  0  0  0  0  0
  1  2  1  0  0  0  0
  1 14  2  0  0  0  0
  1 30  1  0  0  0  0
  2  3  2  0  0  0  0
  2 27  1  0  0  0  0
  3  4  1  0  0  0  0
  3 31  1  0  0  0  0
  4  5  2  0  0  0  0
  4 32  1  0  0  0  0
  5  6  1  0  0  0  0
  5 14  1  0  0  0  0
  6  7  1  0  0  0  0
  7  8  1  0  0  0  0
  7 12  2  0  0  0  0
  8  9  2  0  0  0  0
  8 33  1  0  0  0  0
  9 10  1  0  0  0  0
  9 34  1  0  0  0  0
 10 11  2  0  0  0  0
 10 35  1  0  0  0  0
 11 12  1  0  0  0  0
 11 36  1  0  0  0  0
 12 13  1  0  0  0  0
 13 14  1  0  0  0  0
 13 15  1  0  0  0  0
 15 16  1  0  0  0  0
 15 37  1  0  0  0  0
 15 38  1  0  0  0  0
 16 17  1  0  0  0  0
 16 39  1  0  0  0  0
 16 40  1  0  0  0  0
 17 18  1  0  0  0  0
 17 41  1  0  0  0  0
 17 42  1  0  0  0  0
 18 19  1  0  0  0  0
 18 43  1  0  0  0  0
 18 44  1  0  0  0  0
 19 20  1  0  0  0  0
 19 24  1  0  0  0  0
 20 21  1  0  0  0  0
 20 45  1  0  0  0  0
 20 46  1  0  0  0  0
 21 22  1  0  0  0  0
 21 47  1  0  0  0  0
 21 48  1  0  0  0  0
 22 23  1  0  0  0  0
 22 49  1  0  0  0  0
 22 50  1  0  0  0  0
 23 24  1  0  0  0  0
 23 25  1  0  0  0  0
 23 51  1  1  0  0  0
 24 52  1  0  0  0  0
 24 53  1  0  0  0  0
 25 26  1  0  0  0  0
 25 54  1  0  0  0  0
 25 55  1  0  0  0  0
 26 56  1  0  0  0  0
 27 28  2  0  0  0  0
 27 29  1  0  0  0  0
 29 57  1  0  0  0  0
 29 58  1  0  0  0  0
 29 59  1  0  0  0  0
M  END
$$$$
Target_lig_209
 OpenBabel04172516563D

 62 65  0  0  1  0  0  0  0  0999 V2000
    0.1024   -2.7489   -1.1993 C   0  0  0  0  0  0  0  0  0  0  0  0
    0.6243   -3.1199   -2.4528 C   0  0  0  0  0  0  0  0  0  0  0  0
    1.6745   -2.3750   -2.9955 C   0  0  0  0  0  0  0  0  0  0  0  0
    2.1769   -1.2701   -2.3045 C   0  0  0  0  0  0  0  0  0  0  0  0
    1.6344   -0.8926   -1.0695 C   0  0  0  0  0  0  0  0  0  0  0  0
    2.2899    0.5700   -0.2828 S   0  0  0  0  0  0  0  0  0  0  0  0
    0.8601    1.0615    0.6752 C   0  0  0  0  0  0  0  0  0  0  0  0
    0.6995    2.4218    0.9686 C   0  0  0  0  0  0  0  0  0  0  0  0
   -0.4122    2.8584    1.6890 C   0  0  0  0  0  0  0  0  0  0  0  0
   -1.3499    1.9365    2.1373 C   0  0  0  0  0  0  0  0  0  0  0  0
   -1.1822    0.5760    1.8646 C   0  0  0  0  0  0  0  0  0  0  0  0
   -0.0786    0.1137    1.1253 C   0  0  0  0  0  0  0  0  0  0  0  0
   -0.0157   -1.2441    0.7281 N   0  0  0  0  0  0  0  0  0  0  0  0
    0.6007   -1.6480   -0.4823 C   0  0  0  0  0  0  0  0  0  0  0  0
   -0.0825   -2.2511    1.8220 C   0  0  0  0  0  0  0  0  0  0  0  0
    1.3102   -2.5622    2.3926 C   0  0  0  0  0  0  0  0  0  0  0  0
    1.2818   -3.5261    3.5938 C   0  0  0  0  0  0  0  0  0  0  0  0
    2.7161   -3.7641    4.0903 C   0  0  0  0  0  0  0  0  0  0  0  0
    2.8556   -4.7565    5.2565 C   0  0  0  0  0  0  0  0  0  0  0  0
    2.3276   -6.1102    5.0051 N   0  0  0  0  0  0  0  0  0  0  0  0
    3.0197   -6.7669    3.8831 C   0  0  0  0  0  0  0  0  0  0  0  0
    2.4128   -8.1371    3.5984 C   0  0  0  0  0  0  0  0  0  0  0  0
    2.4821   -9.0386    4.8238 C   0  0  0  0  0  0  0  0  0  0  0  0
    1.8669   -8.3425    6.0447 C   0  0  2  0  0  0  0  0  0  0  0  0
    2.4501   -6.9292    6.2267 C   0  0  0  0  0  0  0  0  0  0  0  0
    2.0833   -9.1651    7.3176 C   0  0  0  0  0  0  0  0  0  0  0  0
    1.5141  -10.4649    7.1912 O   0  0  0  0  0  0  0  0  0  0  0  0
   -0.0064   -4.2852   -3.1489 C   0  0  0  0  0  0  0  0  0  0  0  0
   -0.9787   -4.8376   -2.6301 O   0  0  0  0  0  0  0  0  0  0  0  0
    0.5361   -4.8090   -4.4547 C   0  0  0  0  0  0  0  0  0  0  0  0
   -0.7573   -3.2889   -0.8042 H   0  0  0  0  0  0  0  0  0  0  0  0
    2.1155   -2.6017   -3.9590 H   0  0  0  0  0  0  0  0  0  0  0  0
    2.9818   -0.6875   -2.7497 H   0  0  0  0  0  0  0  0  0  0  0  0
    1.4228    3.1502    0.6132 H   0  0  0  0  0  0  0  0  0  0  0  0
   -0.5516    3.9192    1.8820 H   0  0  0  0  0  0  0  0  0  0  0  0
   -2.2308    2.2721    2.6771 H   0  0  0  0  0  0  0  0  0  0  0  0
   -1.9635   -0.1143    2.1701 H   0  0  0  0  0  0  0  0  0  0  0  0
   -0.5547   -3.1743    1.4653 H   0  0  0  0  0  0  0  0  0  0  0  0
   -0.7221   -1.9012    2.6404 H   0  0  0  0  0  0  0  0  0  0  0  0
    1.7980   -1.6302    2.7004 H   0  0  0  0  0  0  0  0  0  0  0  0
    1.9355   -3.0033    1.6079 H   0  0  0  0  0  0  0  0  0  0  0  0
    0.8143   -4.4716    3.2966 H   0  0  0  0  0  0  0  0  0  0  0  0
    0.6767   -3.1026    4.4042 H   0  0  0  0  0  0  0  0  0  0  0  0
    3.1347   -2.8042    4.4185 H   0  0  0  0  0  0  0  0  0  0  0  0
    3.3440   -4.0876    3.2524 H   0  0  0  0  0  0  0  0  0  0  0  0
    2.3382   -4.3254    6.1230 H   0  0  0  0  0  0  0  0  0  0  0  0
    3.9191   -4.8148    5.5265 H   0  0  0  0  0  0  0  0  0  0  0  0
    4.0930   -6.8671    4.0903 H   0  0  0  0  0  0  0  0  0  0  0  0
    2.9158   -6.1802    2.9658 H   0  0  0  0  0  0  0  0  0  0  0  0
    2.9432   -8.6104    2.7647 H   0  0  0  0  0  0  0  0  0  0  0  0
    1.3671   -8.0194    3.2860 H   0  0  0  0  0  0  0  0  0  0  0  0
    3.5307   -9.2932    5.0255 H   0  0  0  0  0  0  0  0  0  0  0  0
    1.9594   -9.9787    4.6121 H   0  0  0  0  0  0  0  0  0  0  0  0
    0.7857   -8.2592    5.8663 H   0  0  0  0  0  0  0  0  0  0  0  0
    3.5024   -7.0004    6.5366 H   0  0  0  0  0  0  0  0  0  0  0  0
    1.9073   -6.4407    7.0462 H   0  0  0  0  0  0  0  0  0  0  0  0
    1.6271   -8.6779    8.1848 H   0  0  0  0  0  0  0  0  0  0  0  0
    3.1512   -9.2912    7.5282 H   0  0  0  0  0  0  0  0  0  0  0  0
    0.5680  -10.3536    7.0049 H   0  0  0  0  0  0  0  0  0  0  0  0
    1.3379   -4.2120   -4.8828 H   0  0  0  0  0  0  0  0  0  0  0  0
   -0.2781   -4.8381   -5.1850 H   0  0  0  0  0  0  0  0  0  0  0  0
    0.9163   -5.8215   -4.2919 H   0  0  0  0  0  0  0  0  0  0  0  0
  1  2  1  0  0  0  0
  1 14  2  0  0  0  0
  1 31  1  0  0  0  0
  2  3  2  0  0  0  0
  2 28  1  0  0  0  0
  3  4  1  0  0  0  0
  3 32  1  0  0  0  0
  4  5  2  0  0  0  0
  4 33  1  0  0  0  0
  5  6  1  0  0  0  0
  5 14  1  0  0  0  0
  6  7  1  0  0  0  0
  7  8  1  0  0  0  0
  7 12  2  0  0  0  0
  8  9  2  0  0  0  0
  8 34  1  0  0  0  0
  9 10  1  0  0  0  0
  9 35  1  0  0  0  0
 10 11  2  0  0  0  0
 10 36  1  0  0  0  0
 11 12  1  0  0  0  0
 11 37  1  0  0  0  0
 12 13  1  0  0  0  0
 13 14  1  0  0  0  0
 13 15  1  0  0  0  0
 15 16  1  0  0  0  0
 15 38  1  0  0  0  0
 15 39  1  0  0  0  0
 16 17  1  0  0  0  0
 16 40  1  0  0  0  0
 16 41  1  0  0  0  0
 17 18  1  0  0  0  0
 17 42  1  0  0  0  0
 17 43  1  0  0  0  0
 18 19  1  0  0  0  0
 18 44  1  0  0  0  0
 18 45  1  0  0  0  0
 19 20  1  0  0  0  0
 19 46  1  0  0  0  0
 19 47  1  0  0  0  0
 20 21  1  0  0  0  0
 20 25  1  0  0  0  0
 21 22  1  0  0  0  0
 21 48  1  0  0  0  0
 21 49  1  0  0  0  0
 22 23  1  0  0  0  0
 22 50  1  0  0  0  0
 22 51  1  0  0  0  0
 23 24  1  0  0  0  0
 23 52  1  0  0  0  0
 23 53  1  0  0  0  0
 24 25  1  0  0  0  0
 24 26  1  0  0  0  0
 24 54  1  6  0  0  0
 25 55  1  0  0  0  0
 25 56  1  0  0  0  0
 26 27  1  0  0  0  0
 26 57  1  0  0  0  0
 26 58  1  0  0  0  0
 27 59  1  0  0  0  0
 28 29  2  0  0  0  0
 28 30  1  0  0  0  0
 30 60  1  0  0  0  0
 30 61  1  0  0  0  0
 30 62  1  0  0  0  0
M  END
$$$$
Target_lig_210
 OpenBabel04172516563D

 52 54  0  0  0  0  0  0  0  0999 V2000
    2.3193   -1.5789   -0.1494 C   0  0  0  0  0  0  0  0  0  0  0  0
    3.5347   -1.0335   -0.6051 C   0  0  0  0  0  0  0  0  0  0  0  0
    3.6490    0.3590   -0.7301 C   0  0  0  0  0  0  0  0  0  0  0  0
    2.5616    1.1738   -0.4164 C   0  0  0  0  0  0  0  0  0  0  0  0
    1.3661    0.6187    0.0504 C   0  0  0  0  0  0  0  0  0  0  0  0
   -0.0015    1.7200    0.3879 S   0  0  0  0  0  0  0  0  0  0  0  0
   -1.3568    0.5897    0.0912 C   0  0  0  0  0  0  0  0  0  0  0  0
   -2.5616    1.1087   -0.3938 C   0  0  0  0  0  0  0  0  0  0  0  0
   -3.6344    0.2596   -0.6597 C   0  0  0  0  0  0  0  0  0  0  0  0
   -3.5154   -1.1060   -0.4131 C   0  0  0  0  0  0  0  0  0  0  0  0
   -2.3221   -1.6258    0.0908 C   0  0  0  0  0  0  0  0  0  0  0  0
   -1.2179   -0.7906    0.3384 C   0  0  0  0  0  0  0  0  0  0  0  0
    0.0381   -1.3395    0.6938 N   0  0  0  0  0  0  0  0  0  0  0  0
    1.2452   -0.7753    0.2336 C   0  0  0  0  0  0  0  0  0  0  0  0
    0.0361   -2.2495    1.8766 C   0  0  0  0  0  0  0  0  0  0  0  0
    0.9564   -1.7965    3.0220 C   0  0  0  0  0  0  0  0  0  0  0  0
    0.8842   -2.7171    4.2466 C   0  0  0  0  0  0  0  0  0  0  0  0
    1.8026   -2.1885    5.2544 N   0  0  0  0  0  0  0  0  0  0  0  0
    1.8335   -2.9822    6.4623 C   0  0  0  0  0  0  0  0  0  0  0  0
    2.3261   -4.3289    6.1956 N   0  0  0  0  0  0  0  0  0  0  0  0
    3.6557   -4.3410    5.5781 C   0  0  0  0  0  0  0  0  0  0  0  0
    4.6311   -3.7865    6.4388 O   0  0  0  0  0  0  0  0  0  0  0  0
    2.3551   -5.0648    7.4492 C   0  0  0  0  0  0  0  0  0  0  0  0
    2.7491   -6.4058    7.2589 O   0  0  0  0  0  0  0  0  0  0  0  0
    4.6406   -1.9872   -0.9215 C   0  0  0  0  0  0  0  0  0  0  0  0
    4.4396   -3.2037   -0.7804 O   0  0  0  0  0  0  0  0  0  0  0  0
    5.9907   -1.5110   -1.3771 C   0  0  0  0  0  0  0  0  0  0  0  0
    2.1982   -2.6640   -0.1454 H   0  0  0  0  0  0  0  0  0  0  0  0
    4.5545    0.8392   -1.0878 H   0  0  0  0  0  0  0  0  0  0  0  0
    2.6476    2.2527   -0.5513 H   0  0  0  0  0  0  0  0  0  0  0  0
   -2.6622    2.1736   -0.5931 H   0  0  0  0  0  0  0  0  0  0  0  0
   -4.5528    0.6617   -1.0784 H   0  0  0  0  0  0  0  0  0  0  0  0
   -4.3439   -1.7719   -0.6428 H   0  0  0  0  0  0  0  0  0  0  0  0
   -2.2354   -2.7014    0.2241 H   0  0  0  0  0  0  0  0  0  0  0  0
    0.3049   -3.2639    1.5613 H   0  0  0  0  0  0  0  0  0  0  0  0
   -0.9775   -2.3107    2.2919 H   0  0  0  0  0  0  0  0  0  0  0  0
    0.7024   -0.7746    3.3220 H   0  0  0  0  0  0  0  0  0  0  0  0
    1.9970   -1.7934    2.6799 H   0  0  0  0  0  0  0  0  0  0  0  0
    1.1853   -3.7310    3.9502 H   0  0  0  0  0  0  0  0  0  0  0  0
   -0.1363   -2.7689    4.6466 H   0  0  0  0  0  0  0  0  0  0  0  0
    1.5169   -1.2253    5.5007 H   0  0  0  0  0  0  0  0  0  0  0  0
    0.8294   -3.0121    6.9014 H   0  0  0  0  0  0  0  0  0  0  0  0
    2.4551   -2.4657    7.2079 H   0  0  0  0  0  0  0  0  0  0  0  0
    3.6707   -3.7799    4.6316 H   0  0  0  0  0  0  0  0  0  0  0  0
    3.9576   -5.3601    5.3032 H   0  0  0  0  0  0  0  0  0  0  0  0
    4.2249   -3.0187    6.8370 H   0  0  0  0  0  0  0  0  0  0  0  0
    1.3544   -5.0938    7.8945 H   0  0  0  0  0  0  0  0  0  0  0  0
    3.0232   -4.6029    8.1855 H   0  0  0  0  0  0  0  0  0  0  0  0
    2.2235   -6.7094    6.5023 H   0  0  0  0  0  0  0  0  0  0  0  0
    6.0575   -0.4357   -1.5271 H   0  0  0  0  0  0  0  0  0  0  0  0
    6.2281   -1.9937   -2.3297 H   0  0  0  0  0  0  0  0  0  0  0  0
    6.7334   -1.7952   -0.6282 H   0  0  0  0  0  0  0  0  0  0  0  0
  1  2  1  0  0  0  0
  1 14  2  0  0  0  0
  1 28  1  0  0  0  0
  2  3  2  0  0  0  0
  2 25  1  0  0  0  0
  3  4  1  0  0  0  0
  3 29  1  0  0  0  0
  4  5  2  0  0  0  0
  4 30  1  0  0  0  0
  5  6  1  0  0  0  0
  5 14  1  0  0  0  0
  6  7  1  0  0  0  0
  7  8  1  0  0  0  0
  7 12  2  0  0  0  0
  8  9  2  0  0  0  0
  8 31  1  0  0  0  0
  9 10  1  0  0  0  0
  9 32  1  0  0  0  0
 10 11  2  0  0  0  0
 10 33  1  0  0  0  0
 11 12  1  0  0  0  0
 11 34  1  0  0  0  0
 12 13  1  0  0  0  0
 13 14  1  0  0  0  0
 13 15  1  0  0  0  0
 15 16  1  0  0  0  0
 15 35  1  0  0  0  0
 15 36  1  0  0  0  0
 16 17  1  0  0  0  0
 16 37  1  0  0  0  0
 16 38  1  0  0  0  0
 17 18  1  0  0  0  0
 17 39  1  0  0  0  0
 17 40  1  0  0  0  0
 18 19  1  0  0  0  0
 18 41  1  0  0  0  0
 19 20  1  0  0  0  0
 19 42  1  0  0  0  0
 19 43  1  0  0  0  0
 20 21  1  0  0  0  0
 20 23  1  0  0  0  0
 21 22  1  0  0  0  0
 21 44  1  0  0  0  0
 21 45  1  0  0  0  0
 22 46  1  0  0  0  0
 23 24  1  0  0  0  0
 23 47  1  0  0  0  0
 23 48  1  0  0  0  0
 24 49  1  0  0  0  0
 25 26  2  0  0  0  0
 25 27  1  0  0  0  0
 27 50  1  0  0  0  0
 27 51  1  0  0  0  0
 27 52  1  0  0  0  0
M  END
$$$$
Target_lig_211
 OpenBabel04172516563D

 53 55  0  0  1  0  0  0  0  0999 V2000
   -0.7413   -8.9961    2.6450 C   0  0  0  0  0  0  0  0  0  0  0  0
   -2.0980   -8.7864    2.9614 C   0  0  0  0  0  0  0  0  0  0  0  0
   -2.8015   -9.7972    3.6203 C   0  0  0  0  0  0  0  0  0  0  0  0
   -2.1682  -11.0059    3.9224 C   0  0  0  0  0  0  0  0  0  0  0  0
   -0.8291  -11.2206    3.5669 C   0  0  0  0  0  0  0  0  0  0  0  0
   -0.1275  -12.8253    3.9084 S   0  0  0  0  0  0  0  0  0  0  0  0
    1.1228  -12.8827    2.6326 C   0  0  0  0  0  0  0  0  0  0  0  0
    1.5226  -14.1423    2.1661 C   0  0  0  0  0  0  0  0  0  0  0  0
    2.4935  -14.2472    1.1732 C   0  0  0  0  0  0  0  0  0  0  0  0
    3.0871  -13.0971    0.6630 C   0  0  0  0  0  0  0  0  0  0  0  0
    2.7055  -11.8391    1.1386 C   0  0  0  0  0  0  0  0  0  0  0  0
    1.7107  -11.7063    2.1215 C   0  0  0  0  0  0  0  0  0  0  0  0
    1.2430  -10.4229    2.5004 N   0  0  0  0  0  0  0  0  0  0  0  0
   -0.0835  -10.2028    2.9490 C   0  0  0  0  0  0  0  0  0  0  0  0
    2.2666   -9.4382    2.9471 C   0  0  0  0  0  0  0  0  0  0  0  0
    2.9910   -9.9134    4.2172 C   0  0  0  0  0  0  0  0  0  0  0  0
    4.0745   -8.9393    4.7060 C   0  0  0  0  0  0  0  0  0  0  0  0
    4.7051   -9.5372    5.8932 N   0  0  0  0  0  0  0  0  0  0  0  0
    5.8543   -8.7883    6.3742 C   0  0  2  0  0  0  0  0  0  0  0  0
    6.6127   -9.5834    7.4553 C   0  0  0  0  0  0  0  0  0  0  0  0
    7.1767  -10.9404    7.0273 C   0  0  0  0  0  0  0  0  0  0  0  0
    8.3293  -10.8033    5.6216 S   0  0  0  0  0  0  0  0  0  0  0  0
    8.6191  -12.5619    5.3193 C   0  0  0  0  0  0  0  0  0  0  0  0
    5.3865   -7.5953    6.9705 O   0  0  0  0  0  0  0  0  0  0  0  0
   -2.7208   -7.4944    2.5282 C   0  0  0  0  0  0  0  0  0  0  0  0
   -2.0436   -6.6901    1.8873 O   0  0  0  0  0  0  0  0  0  0  0  0
   -4.1484   -7.1594    2.8727 C   0  0  0  0  0  0  0  0  0  0  0  0
   -0.2070   -8.2327    2.0832 H   0  0  0  0  0  0  0  0  0  0  0  0
   -3.8465   -9.7032    3.8887 H   0  0  0  0  0  0  0  0  0  0  0  0
   -2.7366  -11.7928    4.4136 H   0  0  0  0  0  0  0  0  0  0  0  0
    1.0624  -15.0463    2.5575 H   0  0  0  0  0  0  0  0  0  0  0  0
    2.7737  -15.2242    0.7884 H   0  0  0  0  0  0  0  0  0  0  0  0
    3.8289  -13.1740   -0.1282 H   0  0  0  0  0  0  0  0  0  0  0  0
    3.1499  -10.9596    0.6844 H   0  0  0  0  0  0  0  0  0  0  0  0
    1.8153   -8.4590    3.1491 H   0  0  0  0  0  0  0  0  0  0  0  0
    2.9930   -9.2606    2.1454 H   0  0  0  0  0  0  0  0  0  0  0  0
    3.4617  -10.8864    4.0243 H   0  0  0  0  0  0  0  0  0  0  0  0
    2.2572  -10.0729    5.0169 H   0  0  0  0  0  0  0  0  0  0  0  0
    3.6286   -7.9695    4.9520 H   0  0  0  0  0  0  0  0  0  0  0  0
    4.8170   -8.7893    3.9125 H   0  0  0  0  0  0  0  0  0  0  0  0
    5.0290  -10.4630    5.6170 H   0  0  0  0  0  0  0  0  0  0  0  0
    6.5362   -8.5145    5.5629 H   0  0  0  0  0  0  0  0  0  0  0  0
    7.4229   -8.9590    7.8555 H   0  0  0  0  0  0  0  0  0  0  0  0
    5.9447   -9.7463    8.3139 H   0  0  0  0  0  0  0  0  0  0  0  0
    6.3651  -11.6265    6.7604 H   0  0  0  0  0  0  0  0  0  0  0  0
    7.7121  -11.3902    7.8712 H   0  0  0  0  0  0  0  0  0  0  0  0
    9.2995  -12.6675    4.4713 H   0  0  0  0  0  0  0  0  0  0  0  0
    7.6798  -13.0655    5.0749 H   0  0  0  0  0  0  0  0  0  0  0  0
    9.0746  -13.0302    6.1946 H   0  0  0  0  0  0  0  0  0  0  0  0
    4.5809   -7.8726    7.4379 H   0  0  0  0  0  0  0  0  0  0  0  0
   -4.7130   -7.9835    3.3063 H   0  0  0  0  0  0  0  0  0  0  0  0
   -4.6678   -6.8632    1.9567 H   0  0  0  0  0  0  0  0  0  0  0  0
   -4.1518   -6.3272    3.5813 H   0  0  0  0  0  0  0  0  0  0  0  0
  1  2  1  0  0  0  0
  1 14  2  0  0  0  0
  1 28  1  0  0  0  0
  2  3  2  0  0  0  0
  2 25  1  0  0  0  0
  3  4  1  0  0  0  0
  3 29  1  0  0  0  0
  4  5  2  0  0  0  0
  4 30  1  0  0  0  0
  5  6  1  0  0  0  0
  5 14  1  0  0  0  0
  6  7  1  0  0  0  0
  7  8  1  0  0  0  0
  7 12  2  0  0  0  0
  8  9  2  0  0  0  0
  8 31  1  0  0  0  0
  9 10  1  0  0  0  0
  9 32  1  0  0  0  0
 10 11  2  0  0  0  0
 10 33  1  0  0  0  0
 11 12  1  0  0  0  0
 11 34  1  0  0  0  0
 12 13  1  0  0  0  0
 13 14  1  0  0  0  0
 13 15  1  0  0  0  0
 15 16  1  0  0  0  0
 15 35  1  0  0  0  0
 15 36  1  0  0  0  0
 16 17  1  0  0  0  0
 16 37  1  0  0  0  0
 16 38  1  0  0  0  0
 17 18  1  0  0  0  0
 17 39  1  0  0  0  0
 17 40  1  0  0  0  0
 18 41  1  0  0  0  0
 19 24  1  0  0  0  0
 19 20  1  0  0  0  0
 19 18  1  0  0  0  0
 19 42  1  6  0  0  0
 20 21  1  0  0  0  0
 20 43  1  0  0  0  0
 20 44  1  0  0  0  0
 21 22  1  0  0  0  0
 21 45  1  0  0  0  0
 21 46  1  0  0  0  0
 22 23  1  0  0  0  0
 23 47  1  0  0  0  0
 23 48  1  0  0  0  0
 23 49  1  0  0  0  0
 24 50  1  0  0  0  0
 25 26  2  0  0  0  0
 25 27  1  0  0  0  0
 27 51  1  0  0  0  0
 27 52  1  0  0  0  0
 27 53  1  0  0  0  0
M  END
$$$$
Target_lig_212
 OpenBabel04172516563D

 41 43  0  0  0  0  0  0  0  0999 V2000
    3.6826    0.7938    0.0162 C   0  0  0  0  0  0  0  0  0  0  0  0
    3.7930   -0.5837    0.0042 C   0  0  0  0  0  0  0  0  0  0  0  0
    2.6361   -1.3504   -0.0046 C   0  0  0  0  0  0  0  0  0  0  0  0
    1.3609   -0.7480   -0.0152 C   0  0  0  0  0  0  0  0  0  0  0  0
    1.2086    0.6547   -0.0184 C   0  0  0  0  0  0  0  0  0  0  0  0
    2.4153    1.3960    0.0089 C   0  0  0  0  0  0  0  0  0  0  0  0
   -0.0821    1.2781   -0.0468 N   0  0  0  0  0  0  0  0  0  0  0  0
   -1.3334    0.5841   -0.0081 C   0  0  0  0  0  0  0  0  0  0  0  0
   -1.4004   -0.8287   -0.0024 C   0  0  0  0  0  0  0  0  0  0  0  0
    0.0129   -1.8961   -0.0194 S   0  0  0  0  0  0  0  0  0  0  0  0
   -2.6343   -1.5138    0.0130 C   0  0  0  0  0  0  0  0  0  0  0  0
   -3.8354   -0.8214    0.0162 C   0  0  0  0  0  0  0  0  0  0  0  0
   -3.8020    0.5606    0.0186 C   0  0  0  0  0  0  0  0  0  0  0  0
   -2.5800    1.2506    0.0186 C   0  0  0  0  0  0  0  0  0  0  0  0
   -5.2832    1.4401    0.0128 Cl  0  0  0  0  0  0  0  0  0  0  0  0
   -0.1054    2.7703   -0.0456 C   0  0  0  0  0  0  0  0  0  0  0  0
   -0.0229    3.3100    1.3883 C   0  0  0  0  0  0  0  0  0  0  0  0
    0.1500    4.8324    1.4687 C   0  0  0  0  0  0  0  0  0  0  0  0
    0.2379    5.1802    2.8902 N   0  0  0  0  0  0  0  0  0  0  0  0
    0.3565    6.6242    3.1306 C   0  0  0  0  0  0  0  0  0  0  0  0
    0.3820    6.8927    4.6443 C   0  0  0  0  0  0  0  0  0  0  0  0
    1.4922    6.2306    5.2497 O   0  0  0  0  0  0  0  0  0  0  0  0
    4.5774    1.4131    0.0302 H   0  0  0  0  0  0  0  0  0  0  0  0
    4.7674   -1.0652    0.0080 H   0  0  0  0  0  0  0  0  0  0  0  0
    2.7294   -2.4360   -0.0021 H   0  0  0  0  0  0  0  0  0  0  0  0
    2.4255    2.4793    0.0357 H   0  0  0  0  0  0  0  0  0  0  0  0
   -2.6605   -2.6029    0.0177 H   0  0  0  0  0  0  0  0  0  0  0  0
   -4.7782   -1.3639    0.0189 H   0  0  0  0  0  0  0  0  0  0  0  0
   -2.6511    2.3311    0.0437 H   0  0  0  0  0  0  0  0  0  0  0  0
   -0.9873    3.1732   -0.5537 H   0  0  0  0  0  0  0  0  0  0  0  0
    0.6991    3.1772   -0.6677 H   0  0  0  0  0  0  0  0  0  0  0  0
    0.8151    2.8341    1.9130 H   0  0  0  0  0  0  0  0  0  0  0  0
   -0.9293    3.0193    1.9344 H   0  0  0  0  0  0  0  0  0  0  0  0
   -0.7033    5.3344    0.9977 H   0  0  0  0  0  0  0  0  0  0  0  0
    1.0632    5.1396    0.9458 H   0  0  0  0  0  0  0  0  0  0  0  0
    1.0680    4.7256    3.2771 H   0  0  0  0  0  0  0  0  0  0  0  0
   -0.4874    7.1642    2.6882 H   0  0  0  0  0  0  0  0  0  0  0  0
    1.2873    6.9939    2.6855 H   0  0  0  0  0  0  0  0  0  0  0  0
   -0.5367    6.5435    5.1294 H   0  0  0  0  0  0  0  0  0  0  0  0
    0.4823    7.9642    4.8408 H   0  0  0  0  0  0  0  0  0  0  0  0
    1.2642    5.2851    5.2585 H   0  0  0  0  0  0  0  0  0  0  0  0
  1  2  2  0  0  0  0
  1  6  1  0  0  0  0
  1 23  1  0  0  0  0
  2  3  1  0  0  0  0
  2 24  1  0  0  0  0
  3  4  2  0  0  0  0
  3 25  1  0  0  0  0
  4  5  1  0  0  0  0
  4 10  1  0  0  0  0
  5  6  2  0  0  0  0
  5  7  1  0  0  0  0
  6 26  1  0  0  0  0
  7  8  1  0  0  0  0
  7 16  1  0  0  0  0
  8  9  2  0  0  0  0
  8 14  1  0  0  0  0
  9 10  1  0  0  0  0
  9 11  1  0  0  0  0
 11 12  2  0  0  0  0
 11 27  1  0  0  0  0
 12 13  1  0  0  0  0
 12 28  1  0  0  0  0
 13 14  2  0  0  0  0
 13 15  1  0  0  0  0
 14 29  1  0  0  0  0
 16 17  1  0  0  0  0
 16 30  1  0  0  0  0
 16 31  1  0  0  0  0
 17 18  1  0  0  0  0
 17 32  1  0  0  0  0
 17 33  1  0  0  0  0
 18 19  1  0  0  0  0
 18 34  1  0  0  0  0
 18 35  1  0  0  0  0
 19 20  1  0  0  0  0
 19 36  1  0  0  0  0
 20 21  1  0  0  0  0
 20 37  1  0  0  0  0
 20 38  1  0  0  0  0
 21 22  1  0  0  0  0
 21 39  1  0  0  0  0
 21 40  1  0  0  0  0
 22 41  1  0  0  0  0
M  END
$$$$
Target_lig_213
 OpenBabel04172516563D

 49 51  0  0  0  0  0  0  0  0999 V2000
   -0.1542    1.6154   -2.5166 C   0  0  0  0  0  0  0  0  0  0  0  0
   -0.1956    1.1500   -3.8383 C   0  0  0  0  0  0  0  0  0  0  0  0
   -0.2964   -0.2054   -4.0911 C   0  0  0  0  0  0  0  0  0  0  0  0
   -0.3622   -1.0842   -3.0187 C   0  0  0  0  0  0  0  0  0  0  0  0
   -0.3196   -0.6199   -1.6876 C   0  0  0  0  0  0  0  0  0  0  0  0
   -0.4090   -1.8941   -0.4613 S   0  0  0  0  0  0  0  0  0  0  0  0
   -0.3333   -0.9774    1.0540 C   0  0  0  0  0  0  0  0  0  0  0  0
   -0.3822   -1.7763    2.2158 C   0  0  0  0  0  0  0  0  0  0  0  0
   -0.3284   -1.2074    3.4804 C   0  0  0  0  0  0  0  0  0  0  0  0
   -0.2437    0.1701    3.5816 C   0  0  0  0  0  0  0  0  0  0  0  0
   -0.2058    0.9733    2.4343 C   0  0  0  0  0  0  0  0  0  0  0  0
   -0.2297    0.4304    1.1286 C   0  0  0  0  0  0  0  0  0  0  0  0
   -0.1502    1.2383   -0.0456 N   0  0  0  0  0  0  0  0  0  0  0  0
   -0.2051    0.7522   -1.3925 C   0  0  0  0  0  0  0  0  0  0  0  0
    0.0571    2.7032    0.1169 C   0  0  0  0  0  0  0  0  0  0  0  0
   -1.2802    3.4606    0.0683 C   0  0  0  0  0  0  0  0  0  0  0  0
   -1.1046    4.9804   -0.0181 C   0  0  0  0  0  0  0  0  0  0  0  0
   -0.4381    5.3600   -1.2657 N   0  0  0  0  0  0  0  0  0  0  0  0
   -0.2891    6.8121   -1.3729 C   0  0  0  0  0  0  0  0  0  0  0  0
    0.4562    7.1600   -2.6655 C   0  0  0  0  0  0  0  0  0  0  0  0
    0.6093    8.6757   -2.8074 C   0  0  0  0  0  0  0  0  0  0  0  0
    1.3548    9.0629   -4.0836 C   0  0  0  0  0  0  0  0  0  0  0  0
    1.4887   10.5740   -4.1932 C   0  0  0  0  0  0  0  0  0  0  0  0
   -0.1724    0.8981    5.1417 Cl  0  0  0  0  0  0  0  0  0  0  0  0
   -0.0826    2.6914   -2.4118 H   0  0  0  0  0  0  0  0  0  0  0  0
   -0.1415    1.8589   -4.6626 H   0  0  0  0  0  0  0  0  0  0  0  0
   -0.3259   -0.5784   -5.1113 H   0  0  0  0  0  0  0  0  0  0  0  0
   -0.4456   -2.1495   -3.2256 H   0  0  0  0  0  0  0  0  0  0  0  0
   -0.4581   -2.8599    2.1343 H   0  0  0  0  0  0  0  0  0  0  0  0
   -0.3577   -1.8373    4.3632 H   0  0  0  0  0  0  0  0  0  0  0  0
   -0.1611    2.0418    2.6073 H   0  0  0  0  0  0  0  0  0  0  0  0
    0.7656    3.0742   -0.6318 H   0  0  0  0  0  0  0  0  0  0  0  0
    0.5877    2.9533    1.0413 H   0  0  0  0  0  0  0  0  0  0  0  0
   -1.8632    3.2243    0.9671 H   0  0  0  0  0  0  0  0  0  0  0  0
   -1.8901    3.1235   -0.7790 H   0  0  0  0  0  0  0  0  0  0  0  0
   -0.5269    5.3301    0.8456 H   0  0  0  0  0  0  0  0  0  0  0  0
   -2.0950    5.4498    0.0304 H   0  0  0  0  0  0  0  0  0  0  0  0
   -0.9893    5.0287   -2.0588 H   0  0  0  0  0  0  0  0  0  0  0  0
    0.2738    7.1998   -0.5159 H   0  0  0  0  0  0  0  0  0  0  0  0
   -1.2748    7.2924   -1.3786 H   0  0  0  0  0  0  0  0  0  0  0  0
   -0.0878    6.7643   -3.5324 H   0  0  0  0  0  0  0  0  0  0  0  0
    1.4474    6.6888   -2.6629 H   0  0  0  0  0  0  0  0  0  0  0  0
    1.1480    9.0702   -1.9368 H   0  0  0  0  0  0  0  0  0  0  0  0
   -0.3838    9.1421   -2.8102 H   0  0  0  0  0  0  0  0  0  0  0  0
    0.8194    8.6819   -4.9612 H   0  0  0  0  0  0  0  0  0  0  0  0
    2.3521    8.6094   -4.0878 H   0  0  0  0  0  0  0  0  0  0  0  0
    0.5046   11.0530   -4.2190 H   0  0  0  0  0  0  0  0  0  0  0  0
    2.0230   10.8458   -5.1080 H   0  0  0  0  0  0  0  0  0  0  0  0
    2.0441   10.9795   -3.3413 H   0  0  0  0  0  0  0  0  0  0  0  0
  1  2  1  0  0  0  0
  1 14  2  0  0  0  0
  1 25  1  0  0  0  0
  2  3  2  0  0  0  0
  2 26  1  0  0  0  0
  3  4  1  0  0  0  0
  3 27  1  0  0  0  0
  4  5  2  0  0  0  0
  4 28  1  0  0  0  0
  5  6  1  0  0  0  0
  5 14  1  0  0  0  0
  6  7  1  0  0  0  0
  7  8  1  0  0  0  0
  7 12  2  0  0  0  0
  8  9  2  0  0  0  0
  8 29  1  0  0  0  0
  9 10  1  0  0  0  0
  9 30  1  0  0  0  0
 10 11  2  0  0  0  0
 10 24  1  0  0  0  0
 11 12  1  0  0  0  0
 11 31  1  0  0  0  0
 12 13  1  0  0  0  0
 13 14  1  0  0  0  0
 13 15  1  0  0  0  0
 15 16  1  0  0  0  0
 15 32  1  0  0  0  0
 15 33  1  0  0  0  0
 16 17  1  0  0  0  0
 16 34  1  0  0  0  0
 16 35  1  0  0  0  0
 17 18  1  0  0  0  0
 17 36  1  0  0  0  0
 17 37  1  0  0  0  0
 18 19  1  0  0  0  0
 18 38  1  0  0  0  0
 19 20  1  0  0  0  0
 19 39  1  0  0  0  0
 19 40  1  0  0  0  0
 20 21  1  0  0  0  0
 20 41  1  0  0  0  0
 20 42  1  0  0  0  0
 21 22  1  0  0  0  0
 21 43  1  0  0  0  0
 21 44  1  0  0  0  0
 22 23  1  0  0  0  0
 22 45  1  0  0  0  0
 22 46  1  0  0  0  0
 23 47  1  0  0  0  0
 23 48  1  0  0  0  0
 23 49  1  0  0  0  0
M  END
$$$$
Target_lig_214
 OpenBabel04172516563D

 41 44  0  0  0  0  0  0  0  0999 V2000
    2.4047    1.3643    0.0418 C   0  0  0  0  0  0  0  0  0  0  0  0
    3.6721    0.7680    0.0143 C   0  0  0  0  0  0  0  0  0  0  0  0
    3.7881   -0.6094   -0.0135 C   0  0  0  0  0  0  0  0  0  0  0  0
    2.6332   -1.3793   -0.0209 C   0  0  0  0  0  0  0  0  0  0  0  0
    1.3545   -0.7812   -0.0019 C   0  0  0  0  0  0  0  0  0  0  0  0
    0.0053   -1.9303   -0.0310 S   0  0  0  0  0  0  0  0  0  0  0  0
   -1.4113   -0.8593   -0.0147 C   0  0  0  0  0  0  0  0  0  0  0  0
   -2.6447   -1.5438   -0.0477 C   0  0  0  0  0  0  0  0  0  0  0  0
   -3.8461   -0.8516   -0.0164 C   0  0  0  0  0  0  0  0  0  0  0  0
   -3.8101    0.5295    0.0416 C   0  0  0  0  0  0  0  0  0  0  0  0
   -2.5871    1.2180    0.0549 C   0  0  0  0  0  0  0  0  0  0  0  0
   -1.3394    0.5528    0.0354 C   0  0  0  0  0  0  0  0  0  0  0  0
   -0.0884    1.2409    0.0640 N   0  0  0  0  0  0  0  0  0  0  0  0
    1.2013    0.6182    0.0383 C   0  0  0  0  0  0  0  0  0  0  0  0
   -0.0998    2.7238    0.2115 C   0  0  0  0  0  0  0  0  0  0  0  0
    0.1158    3.4544   -1.1383 C   0  0  0  0  0  0  0  0  0  0  0  0
    0.4319    4.8769   -0.9244 N   0  0  0  0  0  0  0  0  0  0  0  0
   -0.7401    5.7122   -0.6403 C   0  0  0  0  0  0  0  0  0  0  0  0
   -0.6810    6.8835   -1.6091 C   0  0  0  0  0  0  0  0  0  0  0  0
    0.7716    6.9410   -2.0288 C   0  0  0  0  0  0  0  0  0  0  0  0
    1.1867    5.4812   -2.0257 C   0  0  0  0  0  0  0  0  0  0  0  0
   -5.2888    1.4111    0.1030 Cl  0  0  0  0  0  0  0  0  0  0  0  0
    2.4087    2.4500    0.0565 H   0  0  0  0  0  0  0  0  0  0  0  0
    4.5626    1.3918    0.0166 H   0  0  0  0  0  0  0  0  0  0  0  0
    4.7662   -1.0828   -0.0294 H   0  0  0  0  0  0  0  0  0  0  0  0
    2.7327   -2.4634   -0.0456 H   0  0  0  0  0  0  0  0  0  0  0  0
   -2.6705   -2.6317   -0.0928 H   0  0  0  0  0  0  0  0  0  0  0  0
   -4.7876   -1.3922   -0.0367 H   0  0  0  0  0  0  0  0  0  0  0  0
   -2.6585    2.2984    0.0829 H   0  0  0  0  0  0  0  0  0  0  0  0
    0.6627    3.0303    0.9381 H   0  0  0  0  0  0  0  0  0  0  0  0
   -1.0075    3.0995    0.6918 H   0  0  0  0  0  0  0  0  0  0  0  0
   -0.7596    3.3300   -1.7904 H   0  0  0  0  0  0  0  0  0  0  0  0
    0.9475    2.9810   -1.6740 H   0  0  0  0  0  0  0  0  0  0  0  0
   -0.6524    6.0783    0.3890 H   0  0  0  0  0  0  0  0  0  0  0  0
   -1.6996    5.1900   -0.7239 H   0  0  0  0  0  0  0  0  0  0  0  0
   -1.0165    7.8204   -1.1543 H   0  0  0  0  0  0  0  0  0  0  0  0
   -1.3117    6.6801   -2.4828 H   0  0  0  0  0  0  0  0  0  0  0  0
    1.3544    7.5132   -1.2973 H   0  0  0  0  0  0  0  0  0  0  0  0
    0.8996    7.4085   -3.0103 H   0  0  0  0  0  0  0  0  0  0  0  0
    2.2641    5.3836   -1.8527 H   0  0  0  0  0  0  0  0  0  0  0  0
    0.9476    5.0260   -2.9937 H   0  0  0  0  0  0  0  0  0  0  0  0
  1  2  1  0  0  0  0
  1 14  2  0  0  0  0
  1 23  1  0  0  0  0
  2  3  2  0  0  0  0
  2 24  1  0  0  0  0
  3  4  1  0  0  0  0
  3 25  1  0  0  0  0
  4  5  2  0  0  0  0
  4 26  1  0  0  0  0
  5  6  1  0  0  0  0
  5 14  1  0  0  0  0
  6  7  1  0  0  0  0
  7  8  1  0  0  0  0
  7 12  2  0  0  0  0
  8  9  2  0  0  0  0
  8 27  1  0  0  0  0
  9 10  1  0  0  0  0
  9 28  1  0  0  0  0
 10 11  2  0  0  0  0
 10 22  1  0  0  0  0
 11 12  1  0  0  0  0
 11 29  1  0  0  0  0
 12 13  1  0  0  0  0
 13 14  1  0  0  0  0
 13 15  1  0  0  0  0
 15 16  1  0  0  0  0
 15 30  1  0  0  0  0
 15 31  1  0  0  0  0
 16 17  1  0  0  0  0
 16 32  1  0  0  0  0
 16 33  1  0  0  0  0
 17 18  1  0  0  0  0
 17 21  1  0  0  0  0
 18 19  1  0  0  0  0
 18 34  1  0  0  0  0
 18 35  1  0  0  0  0
 19 20  1  0  0  0  0
 19 36  1  0  0  0  0
 19 37  1  0  0  0  0
 20 21  1  0  0  0  0
 20 38  1  0  0  0  0
 20 39  1  0  0  0  0
 21 40  1  0  0  0  0
 21 41  1  0  0  0  0
M  END
$$$$
Target_lig_215
 OpenBabel04172516563D

 44 47  0  0  1  0  0  0  0  0999 V2000
    2.3547    1.3072    0.3462 C   0  0  0  0  0  0  0  0  0  0  0  0
    3.6267    0.7373    0.1682 C   0  0  0  0  0  0  0  0  0  0  0  0
    3.7596   -0.6302    0.0069 C   0  0  0  0  0  0  0  0  0  0  0  0
    2.6189   -1.4165    0.0264 C   0  0  0  0  0  0  0  0  0  0  0  0
    1.3363   -0.8438    0.1847 C   0  0  0  0  0  0  0  0  0  0  0  0
    0.0077   -2.0178    0.1790 S   0  0  0  0  0  0  0  0  0  0  0  0
   -1.4211   -0.9739    0.1549 C   0  0  0  0  0  0  0  0  0  0  0  0
   -2.6422   -1.6582   -0.0297 C   0  0  0  0  0  0  0  0  0  0  0  0
   -3.8515   -0.9773   -0.0296 C   0  0  0  0  0  0  0  0  0  0  0  0
   -3.8445    0.3899    0.1621 C   0  0  0  0  0  0  0  0  0  0  0  0
   -2.6390    1.0785    0.3384 C   0  0  0  0  0  0  0  0  0  0  0  0
   -1.3818    0.4274    0.3241 C   0  0  0  0  0  0  0  0  0  0  0  0
   -0.1425    1.1345    0.4572 N   0  0  0  0  0  0  0  0  0  0  0  0
    1.1600    0.5489    0.3390 C   0  0  0  0  0  0  0  0  0  0  0  0
   -0.2318    2.6181    0.5784 C   0  0  0  0  0  0  0  0  0  0  0  0
   -0.4697    3.0865    2.0381 C   0  0  0  0  0  0  0  0  0  0  0  0
   -0.4378    4.5601    2.2016 N   0  0  0  0  0  0  0  0  0  0  0  0
   -0.9327    4.9742    3.5282 C   0  0  0  0  0  0  0  0  0  0  0  0
    0.2604    5.5041    4.3003 C   0  0  0  0  0  0  0  0  0  0  0  0
    1.1378    6.0767    3.2140 C   0  0  0  0  0  0  0  0  0  0  0  0
    0.9191    5.1292    2.0357 C   0  0  2  0  0  0  0  0  0  0  0  0
    1.0432    5.8851    0.7161 C   0  0  0  0  0  0  0  0  0  0  0  0
   -5.3314    1.2588    0.1781 Cl  0  0  0  0  0  0  0  0  0  0  0  0
    2.3643    2.3825    0.4789 H   0  0  0  0  0  0  0  0  0  0  0  0
    4.5073    1.3728    0.1503 H   0  0  0  0  0  0  0  0  0  0  0  0
    4.7387   -1.0819   -0.1263 H   0  0  0  0  0  0  0  0  0  0  0  0
    2.7269   -2.4939   -0.0895 H   0  0  0  0  0  0  0  0  0  0  0  0
   -2.6495   -2.7372   -0.1736 H   0  0  0  0  0  0  0  0  0  0  0  0
   -4.7812   -1.5199   -0.1824 H   0  0  0  0  0  0  0  0  0  0  0  0
   -2.7250    2.1493    0.4851 H   0  0  0  0  0  0  0  0  0  0  0  0
   -1.0074    3.0241   -0.0824 H   0  0  0  0  0  0  0  0  0  0  0  0
    0.6517    3.1039    0.1716 H   0  0  0  0  0  0  0  0  0  0  0  0
    0.2410    2.6051    2.7217 H   0  0  0  0  0  0  0  0  0  0  0  0
   -1.4656    2.7354    2.3398 H   0  0  0  0  0  0  0  0  0  0  0  0
   -1.4519    4.1877    4.0874 H   0  0  0  0  0  0  0  0  0  0  0  0
   -1.6546    5.7871    3.3778 H   0  0  0  0  0  0  0  0  0  0  0  0
    0.7780    4.6883    4.8181 H   0  0  0  0  0  0  0  0  0  0  0  0
   -0.0203    6.2597    5.0393 H   0  0  0  0  0  0  0  0  0  0  0  0
    2.1887    6.1158    3.5204 H   0  0  0  0  0  0  0  0  0  0  0  0
    0.8181    7.0987    2.9756 H   0  0  0  0  0  0  0  0  0  0  0  0
    1.6869    4.3459    2.0855 H   0  0  0  0  0  0  0  0  0  0  0  0
    0.2166    6.5930    0.5836 H   0  0  0  0  0  0  0  0  0  0  0  0
    1.0388    5.2088   -0.1430 H   0  0  0  0  0  0  0  0  0  0  0  0
    1.9778    6.4546    0.6840 H   0  0  0  0  0  0  0  0  0  0  0  0
  1  2  1  0  0  0  0
  1 14  2  0  0  0  0
  1 24  1  0  0  0  0
  2  3  2  0  0  0  0
  2 25  1  0  0  0  0
  3  4  1  0  0  0  0
  3 26  1  0  0  0  0
  4  5  2  0  0  0  0
  4 27  1  0  0  0  0
  5  6  1  0  0  0  0
  5 14  1  0  0  0  0
  6  7  1  0  0  0  0
  7  8  1  0  0  0  0
  7 12  2  0  0  0  0
  8  9  2  0  0  0  0
  8 28  1  0  0  0  0
  9 10  1  0  0  0  0
  9 29  1  0  0  0  0
 10 11  2  0  0  0  0
 10 23  1  0  0  0  0
 11 12  1  0  0  0  0
 11 30  1  0  0  0  0
 12 13  1  0  0  0  0
 13 14  1  0  0  0  0
 13 15  1  0  0  0  0
 15 16  1  0  0  0  0
 15 31  1  0  0  0  0
 15 32  1  0  0  0  0
 16 17  1  0  0  0  0
 16 33  1  0  0  0  0
 16 34  1  0  0  0  0
 17 18  1  0  0  0  0
 17 21  1  0  0  0  0
 18 19  1  0  0  0  0
 18 35  1  0  0  0  0
 18 36  1  0  0  0  0
 19 20  1  0  0  0  0
 19 37  1  0  0  0  0
 19 38  1  0  0  0  0
 20 21  1  0  0  0  0
 20 39  1  0  0  0  0
 20 40  1  0  0  0  0
 21 22  1  0  0  0  0
 21 41  1  1  0  0  0
 22 42  1  0  0  0  0
 22 43  1  0  0  0  0
 22 44  1  0  0  0  0
M  END
$$$$
Target_lig_216
 OpenBabel04172516563D

 47 50  0  0  0  0  0  0  0  0999 V2000
    1.0555    0.2827   -3.9146 C   0  0  0  0  0  0  0  0  0  0  0  0
    1.5934   -1.0350   -3.3767 C   0  0  0  0  0  0  0  0  0  0  0  0
    1.7137   -0.9930   -1.8549 C   0  0  0  0  0  0  0  0  0  0  0  0
    2.5971    0.1082   -1.4301 N   0  0  0  0  0  0  0  0  0  0  0  0
    2.0358    1.3978   -1.8680 C   0  0  0  0  0  0  0  0  0  0  0  0
    1.8876    1.4483   -3.3919 C   0  0  0  0  0  0  0  0  0  0  0  0
    2.8267    0.1020    0.0232 C   0  0  0  0  0  0  0  0  0  0  0  0
    3.5909   -1.1325    0.5273 C   0  0  0  0  0  0  0  0  0  0  0  0
    4.9574   -1.2962   -0.1548 C   0  0  0  0  0  0  0  0  0  0  0  0
    5.6264   -2.5498    0.2823 N   0  0  0  0  0  0  0  0  0  0  0  0
    6.4632   -2.4823    1.4394 C   0  0  0  0  0  0  0  0  0  0  0  0
    6.8045   -1.2597    2.0666 C   0  0  0  0  0  0  0  0  0  0  0  0
    7.6628   -1.1861    3.1738 C   0  0  0  0  0  0  0  0  0  0  0  0
    8.2084   -2.3368    3.7070 C   0  0  0  0  0  0  0  0  0  0  0  0
    7.8857   -3.5598    3.1347 C   0  0  0  0  0  0  0  0  0  0  0  0
    7.0242   -3.6395    2.0190 C   0  0  0  0  0  0  0  0  0  0  0  0
    6.7117   -5.2905    1.4503 S   0  0  0  0  0  0  0  0  0  0  0  0
    5.6351   -5.0275    0.0676 C   0  0  0  0  0  0  0  0  0  0  0  0
    5.2339   -3.7547   -0.3872 C   0  0  0  0  0  0  0  0  0  0  0  0
    4.4204   -3.7509   -1.5454 C   0  0  0  0  0  0  0  0  0  0  0  0
    3.9745   -4.9248   -2.1626 C   0  0  0  0  0  0  0  0  0  0  0  0
    4.3531   -6.1604   -1.6739 C   0  0  0  0  0  0  0  0  0  0  0  0
    5.1941   -6.2076   -0.5694 C   0  0  0  0  0  0  0  0  0  0  0  0
    2.9347   -4.8293   -3.5321 Cl  0  0  0  0  0  0  0  0  0  0  0  0
    0.0126    0.4055   -3.5985 H   0  0  0  0  0  0  0  0  0  0  0  0
    1.0624    0.2725   -5.0099 H   0  0  0  0  0  0  0  0  0  0  0  0
    2.5771   -1.2413   -3.8203 H   0  0  0  0  0  0  0  0  0  0  0  0
    0.9327   -1.8571   -3.6713 H   0  0  0  0  0  0  0  0  0  0  0  0
    2.1102   -1.9601   -1.5412 H   0  0  0  0  0  0  0  0  0  0  0  0
    0.7210   -0.8949   -1.3977 H   0  0  0  0  0  0  0  0  0  0  0  0
    2.6979    2.2179   -1.5648 H   0  0  0  0  0  0  0  0  0  0  0  0
    1.0602    1.5756   -1.3964 H   0  0  0  0  0  0  0  0  0  0  0  0
    2.8814    1.4230   -3.8567 H   0  0  0  0  0  0  0  0  0  0  0  0
    1.4205    2.3943   -3.6884 H   0  0  0  0  0  0  0  0  0  0  0  0
    1.8743    0.1828    0.5629 H   0  0  0  0  0  0  0  0  0  0  0  0
    3.4189    0.9847    0.2969 H   0  0  0  0  0  0  0  0  0  0  0  0
    2.9808   -2.0336    0.3986 H   0  0  0  0  0  0  0  0  0  0  0  0
    3.7307   -1.0354    1.6110 H   0  0  0  0  0  0  0  0  0  0  0  0
    5.5674   -0.4069    0.0248 H   0  0  0  0  0  0  0  0  0  0  0  0
    4.8751   -1.2538   -1.2441 H   0  0  0  0  0  0  0  0  0  0  0  0
    6.4257   -0.3048    1.7248 H   0  0  0  0  0  0  0  0  0  0  0  0
    7.8999   -0.2186    3.6103 H   0  0  0  0  0  0  0  0  0  0  0  0
    8.8771   -2.2904    4.5618 H   0  0  0  0  0  0  0  0  0  0  0  0
    8.3114   -4.4641    3.5644 H   0  0  0  0  0  0  0  0  0  0  0  0
    4.1027   -2.8289   -2.0151 H   0  0  0  0  0  0  0  0  0  0  0  0
    4.0118   -7.0780   -2.1432 H   0  0  0  0  0  0  0  0  0  0  0  0
    5.5071   -7.1816   -0.1960 H   0  0  0  0  0  0  0  0  0  0  0  0
  1  2  1  0  0  0  0
  1  6  1  0  0  0  0
  1 25  1  0  0  0  0
  1 26  1  0  0  0  0
  2  3  1  0  0  0  0
  2 27  1  0  0  0  0
  2 28  1  0  0  0  0
  3  4  1  0  0  0  0
  3 29  1  0  0  0  0
  3 30  1  0  0  0  0
  4  5  1  0  0  0  0
  4  7  1  0  0  0  0
  5  6  1  0  0  0  0
  5 31  1  0  0  0  0
  5 32  1  0  0  0  0
  6 33  1  0  0  0  0
  6 34  1  0  0  0  0
  7  8  1  0  0  0  0
  7 35  1  0  0  0  0
  7 36  1  0  0  0  0
  8  9  1  0  0  0  0
  8 37  1  0  0  0  0
  8 38  1  0  0  0  0
  9 10  1  0  0  0  0
  9 39  1  0  0  0  0
  9 40  1  0  0  0  0
 10 11  1  0  0  0  0
 10 19  1  0  0  0  0
 11 12  2  0  0  0  0
 11 16  1  0  0  0  0
 12 13  1  0  0  0  0
 12 41  1  0  0  0  0
 13 14  2  0  0  0  0
 13 42  1  0  0  0  0
 14 15  1  0  0  0  0
 14 43  1  0  0  0  0
 15 16  2  0  0  0  0
 15 44  1  0  0  0  0
 16 17  1  0  0  0  0
 17 18  1  0  0  0  0
 18 19  2  0  0  0  0
 18 23  1  0  0  0  0
 19 20  1  0  0  0  0
 20 21  2  0  0  0  0
 20 45  1  0  0  0  0
 21 22  1  0  0  0  0
 21 24  1  0  0  0  0
 22 23  2  0  0  0  0
 22 46  1  0  0  0  0
 23 47  1  0  0  0  0
M  END
$$$$
Target_lig_217
 OpenBabel04172516563D

 49 52  0  0  0  0  0  0  0  0999 V2000
    1.9862   -2.3032   -0.9063 C   0  0  0  0  0  0  0  0  0  0  0  0
    0.5446   -2.2526   -1.1249 N   0  0  0  0  0  0  0  0  0  0  0  0
   -0.1180   -3.4682   -0.6207 C   0  0  0  0  0  0  0  0  0  0  0  0
   -1.6611   -3.4008   -0.7870 C   0  0  0  0  0  0  0  0  0  0  0  0
   -2.3023   -2.2011   -0.1855 N   0  0  0  0  0  0  0  0  0  0  0  0
   -1.5839   -1.0105   -0.6879 C   0  0  0  0  0  0  0  0  0  0  0  0
   -0.0469   -1.0547   -0.5081 C   0  0  0  0  0  0  0  0  0  0  0  0
   -2.3040   -2.3188    1.2816 C   0  0  0  0  0  0  0  0  0  0  0  0
   -3.0656   -1.2160    2.0278 C   0  0  0  0  0  0  0  0  0  0  0  0
   -2.9877   -1.3573    3.5606 C   0  0  0  0  0  0  0  0  0  0  0  0
   -3.6836   -2.5600    4.0821 N   0  0  0  0  0  0  0  0  0  0  0  0
   -5.0898   -2.4332    4.3220 C   0  0  0  0  0  0  0  0  0  0  0  0
   -5.8057   -1.2409    4.0544 C   0  0  0  0  0  0  0  0  0  0  0  0
   -7.1654   -1.0827    4.3571 C   0  0  0  0  0  0  0  0  0  0  0  0
   -7.8720   -2.1239    4.9293 C   0  0  0  0  0  0  0  0  0  0  0  0
   -7.2196   -3.3263    5.1663 C   0  0  0  0  0  0  0  0  0  0  0  0
   -5.8514   -3.4905    4.8599 C   0  0  0  0  0  0  0  0  0  0  0  0
   -5.2085   -5.1109    5.1866 S   0  0  0  0  0  0  0  0  0  0  0  0
   -3.5011   -4.9488    4.7359 C   0  0  0  0  0  0  0  0  0  0  0  0
   -2.9108   -3.7466    4.2967 C   0  0  0  0  0  0  0  0  0  0  0  0
   -1.5185   -3.8061    4.0593 C   0  0  0  0  0  0  0  0  0  0  0  0
   -0.7788   -4.9902    4.1664 C   0  0  0  0  0  0  0  0  0  0  0  0
   -1.3905   -6.1627    4.5634 C   0  0  0  0  0  0  0  0  0  0  0  0
   -2.7468   -6.1356    4.8606 C   0  0  0  0  0  0  0  0  0  0  0  0
    0.8973   -4.9860    3.7732 Cl  0  0  0  0  0  0  0  0  0  0  0  0
    2.4193   -3.1743   -1.4105 H   0  0  0  0  0  0  0  0  0  0  0  0
    2.2448   -2.3550    0.1569 H   0  0  0  0  0  0  0  0  0  0  0  0
    2.4703   -1.4189   -1.3360 H   0  0  0  0  0  0  0  0  0  0  0  0
    0.1305   -3.6374    0.4355 H   0  0  0  0  0  0  0  0  0  0  0  0
    0.2454   -4.3398   -1.1774 H   0  0  0  0  0  0  0  0  0  0  0  0
   -2.1127   -4.3152   -0.3816 H   0  0  0  0  0  0  0  0  0  0  0  0
   -1.8986   -3.4102   -1.8597 H   0  0  0  0  0  0  0  0  0  0  0  0
   -1.9811   -0.0939   -0.2414 H   0  0  0  0  0  0  0  0  0  0  0  0
   -1.8032   -0.9152   -1.7600 H   0  0  0  0  0  0  0  0  0  0  0  0
    0.2006   -1.0021    0.5603 H   0  0  0  0  0  0  0  0  0  0  0  0
    0.3746   -0.1574   -0.9781 H   0  0  0  0  0  0  0  0  0  0  0  0
   -1.2794   -2.3574    1.6581 H   0  0  0  0  0  0  0  0  0  0  0  0
   -2.7858   -3.2714    1.5272 H   0  0  0  0  0  0  0  0  0  0  0  0
   -4.1076   -1.2008    1.6897 H   0  0  0  0  0  0  0  0  0  0  0  0
   -2.6384   -0.2373    1.7832 H   0  0  0  0  0  0  0  0  0  0  0  0
   -3.3876   -0.4492    4.0276 H   0  0  0  0  0  0  0  0  0  0  0  0
   -1.9454   -1.2974    3.8865 H   0  0  0  0  0  0  0  0  0  0  0  0
   -5.3385   -0.3788    3.5907 H   0  0  0  0  0  0  0  0  0  0  0  0
   -7.6625   -0.1398    4.1426 H   0  0  0  0  0  0  0  0  0  0  0  0
   -8.9231   -2.0097    5.1784 H   0  0  0  0  0  0  0  0  0  0  0  0
   -7.7876   -4.1494    5.5967 H   0  0  0  0  0  0  0  0  0  0  0  0
   -0.9490   -2.9367    3.7569 H   0  0  0  0  0  0  0  0  0  0  0  0
   -0.8291   -7.0882    4.6491 H   0  0  0  0  0  0  0  0  0  0  0  0
   -3.2242   -7.0581    5.1891 H   0  0  0  0  0  0  0  0  0  0  0  0
  1  2  1  0  0  0  0
  1 26  1  0  0  0  0
  1 27  1  0  0  0  0
  1 28  1  0  0  0  0
  2  3  1  0  0  0  0
  2  7  1  0  0  0  0
  3  4  1  0  0  0  0
  3 29  1  0  0  0  0
  3 30  1  0  0  0  0
  4  5  1  0  0  0  0
  4 31  1  0  0  0  0
  4 32  1  0  0  0  0
  5  6  1  0  0  0  0
  5  8  1  0  0  0  0
  6  7  1  0  0  0  0
  6 33  1  0  0  0  0
  6 34  1  0  0  0  0
  7 35  1  0  0  0  0
  7 36  1  0  0  0  0
  8  9  1  0  0  0  0
  8 37  1  0  0  0  0
  8 38  1  0  0  0  0
  9 10  1  0  0  0  0
  9 39  1  0  0  0  0
  9 40  1  0  0  0  0
 10 11  1  0  0  0  0
 10 41  1  0  0  0  0
 10 42  1  0  0  0  0
 11 12  1  0  0  0  0
 11 20  1  0  0  0  0
 12 13  2  0  0  0  0
 12 17  1  0  0  0  0
 13 14  1  0  0  0  0
 13 43  1  0  0  0  0
 14 15  2  0  0  0  0
 14 44  1  0  0  0  0
 15 16  1  0  0  0  0
 15 45  1  0  0  0  0
 16 17  2  0  0  0  0
 16 46  1  0  0  0  0
 17 18  1  0  0  0  0
 18 19  1  0  0  0  0
 19 20  2  0  0  0  0
 19 24  1  0  0  0  0
 20 21  1  0  0  0  0
 21 22  2  0  0  0  0
 21 47  1  0  0  0  0
 22 23  1  0  0  0  0
 22 25  1  0  0  0  0
 23 24  2  0  0  0  0
 23 48  1  0  0  0  0
 24 49  1  0  0  0  0
M  END
$$$$
Target_lig_218
 OpenBabel04172516563D

 36 39  0  0  0  0  0  0  0  0999 V2000
    2.4612    1.3088    0.1604 C   0  0  0  0  0  0  0  0  0  0  0  0
    3.7262    0.7080    0.1265 C   0  0  0  0  0  0  0  0  0  0  0  0
    3.8349   -0.6648    0.0214 C   0  0  0  0  0  0  0  0  0  0  0  0
    2.6758   -1.4247   -0.0357 C   0  0  0  0  0  0  0  0  0  0  0  0
    1.4016   -0.8190   -0.0407 C   0  0  0  0  0  0  0  0  0  0  0  0
    0.0523   -1.9583   -0.1203 S   0  0  0  0  0  0  0  0  0  0  0  0
   -1.3583   -0.8846   -0.0634 C   0  0  0  0  0  0  0  0  0  0  0  0
   -2.5903   -1.5748   -0.0281 C   0  0  0  0  0  0  0  0  0  0  0  0
   -3.7927   -0.8867   -0.0112 C   0  0  0  0  0  0  0  0  0  0  0  0
   -3.7610    0.4960   -0.0411 C   0  0  0  0  0  0  0  0  0  0  0  0
   -2.5387    1.1899   -0.0769 C   0  0  0  0  0  0  0  0  0  0  0  0
   -1.2852    0.5286   -0.0693 C   0  0  0  0  0  0  0  0  0  0  0  0
   -0.0299    1.2169   -0.0595 N   0  0  0  0  0  0  0  0  0  0  0  0
    1.2546    0.5806    0.0228 C   0  0  0  0  0  0  0  0  0  0  0  0
   -0.0189    2.7088    0.0234 C   0  0  0  0  0  0  0  0  0  0  0  0
    0.5392    3.3992   -1.2340 C   0  0  0  0  0  0  0  0  0  0  0  0
    0.6374    4.8398   -1.0481 N   0  0  0  0  0  0  0  0  0  0  0  0
   -0.1567    5.7735   -1.6484 C   0  0  0  0  0  0  0  0  0  0  0  0
    0.1430    6.9868   -1.2434 N   0  0  0  0  0  0  0  0  0  0  0  0
    1.1889    6.8332   -0.3736 C   0  0  0  0  0  0  0  0  0  0  0  0
    1.5278    5.5049   -0.2487 C   0  0  0  0  0  0  0  0  0  0  0  0
   -5.2421    1.3702   -0.0265 Cl  0  0  0  0  0  0  0  0  0  0  0  0
    2.4761    2.3835    0.2972 H   0  0  0  0  0  0  0  0  0  0  0  0
    4.6207    1.3230    0.1853 H   0  0  0  0  0  0  0  0  0  0  0  0
    4.8088   -1.1447   -0.0002 H   0  0  0  0  0  0  0  0  0  0  0  0
    2.7669   -2.5088   -0.0820 H   0  0  0  0  0  0  0  0  0  0  0  0
   -2.6153   -2.6619   -0.0147 H   0  0  0  0  0  0  0  0  0  0  0  0
   -4.7340   -1.4300    0.0198 H   0  0  0  0  0  0  0  0  0  0  0  0
   -2.6283    2.2662   -0.1055 H   0  0  0  0  0  0  0  0  0  0  0  0
    0.5278    3.0112    0.9276 H   0  0  0  0  0  0  0  0  0  0  0  0
   -1.0020    3.1443    0.2056 H   0  0  0  0  0  0  0  0  0  0  0  0
   -0.0973    3.2081   -2.1015 H   0  0  0  0  0  0  0  0  0  0  0  0
    1.5477    3.0678   -1.5139 H   0  0  0  0  0  0  0  0  0  0  0  0
   -0.9301    5.5225   -2.3613 H   0  0  0  0  0  0  0  0  0  0  0  0
    1.6452    7.6866    0.1146 H   0  0  0  0  0  0  0  0  0  0  0  0
    2.2930    5.0113    0.3316 H   0  0  0  0  0  0  0  0  0  0  0  0
  1  2  1  0  0  0  0
  1 14  2  0  0  0  0
  1 23  1  0  0  0  0
  2  3  2  0  0  0  0
  2 24  1  0  0  0  0
  3  4  1  0  0  0  0
  3 25  1  0  0  0  0
  4  5  2  0  0  0  0
  4 26  1  0  0  0  0
  5  6  1  0  0  0  0
  5 14  1  0  0  0  0
  6  7  1  0  0  0  0
  7  8  1  0  0  0  0
  7 12  2  0  0  0  0
  8  9  2  0  0  0  0
  8 27  1  0  0  0  0
  9 10  1  0  0  0  0
  9 28  1  0  0  0  0
 10 11  2  0  0  0  0
 10 22  1  0  0  0  0
 11 12  1  0  0  0  0
 11 29  1  0  0  0  0
 12 13  1  0  0  0  0
 13 14  1  0  0  0  0
 13 15  1  0  0  0  0
 15 16  1  0  0  0  0
 15 30  1  0  0  0  0
 15 31  1  0  0  0  0
 16 17  1  0  0  0  0
 16 32  1  0  0  0  0
 16 33  1  0  0  0  0
 17 18  1  0  0  0  0
 17 21  1  0  0  0  0
 18 19  2  0  0  0  0
 18 34  1  0  0  0  0
 19 20  1  0  0  0  0
 20 21  2  0  0  0  0
 20 35  1  0  0  0  0
 21 36  1  0  0  0  0
M  END
$$$$
Target_lig_219
 OpenBabel04172516563D

 44 47  0  0  0  0  0  0  0  0999 V2000
   -1.4140   -0.9290   -7.0230 C   0  0  0  0  0  0  0  0  0  0  0  0
   -1.1033   -1.2720   -5.7048 C   0  0  0  0  0  0  0  0  0  0  0  0
   -2.0633   -1.1444   -4.6987 C   0  0  0  0  0  0  0  0  0  0  0  0
   -3.3459   -0.6590   -4.9959 C   0  0  0  0  0  0  0  0  0  0  0  0
   -3.6403   -0.3164   -6.3273 C   0  0  0  0  0  0  0  0  0  0  0  0
   -2.6816   -0.4481   -7.3312 C   0  0  0  0  0  0  0  0  0  0  0  0
   -4.4678   -0.6180   -3.9859 C   0  0  0  0  0  0  0  0  0  0  0  0
   -4.0230   -0.3723   -2.6089 N   0  0  0  0  0  0  0  0  0  0  0  0
   -5.1567   -0.3250   -1.6620 C   0  0  0  0  0  0  0  0  0  0  0  0
   -5.9475   -1.6515   -1.5446 C   0  0  0  0  0  0  0  0  0  0  0  0
   -6.9134   -1.6951   -0.3728 N   0  0  0  0  0  0  0  0  0  0  0  0
   -6.1144   -2.1855    0.7308 C   0  0  0  0  0  0  0  0  0  0  0  0
   -5.2573   -1.2908    1.3852 C   0  0  0  0  0  0  0  0  0  0  0  0
   -4.0687   -1.7524    1.9400 C   0  0  0  0  0  0  0  0  0  0  0  0
   -3.7783   -3.1122    1.9067 C   0  0  0  0  0  0  0  0  0  0  0  0
   -4.7473   -4.0181    1.4732 C   0  0  0  0  0  0  0  0  0  0  0  0
   -5.9568   -3.5619    0.9411 C   0  0  0  0  0  0  0  0  0  0  0  0
   -7.1976   -4.7442    0.4846 S   0  0  0  0  0  0  0  0  0  0  0  0
   -8.3596   -3.7384   -0.4209 C   0  0  0  0  0  0  0  0  0  0  0  0
   -8.0829   -2.4116   -0.8086 C   0  0  0  0  0  0  0  0  0  0  0  0
   -8.9860   -1.7652   -1.6772 C   0  0  0  0  0  0  0  0  0  0  0  0
  -10.1264   -2.4199   -2.1403 C   0  0  0  0  0  0  0  0  0  0  0  0
  -10.4235   -3.7093   -1.7133 C   0  0  0  0  0  0  0  0  0  0  0  0
   -9.5451   -4.3632   -0.8487 C   0  0  0  0  0  0  0  0  0  0  0  0
  -11.1552   -1.6429   -3.2797 Cl  0  0  0  0  0  0  0  0  0  0  0  0
   -0.6703   -1.0505   -7.8075 H   0  0  0  0  0  0  0  0  0  0  0  0
   -0.1152   -1.6548   -5.4635 H   0  0  0  0  0  0  0  0  0  0  0  0
   -1.8118   -1.4431   -3.6856 H   0  0  0  0  0  0  0  0  0  0  0  0
   -4.6328    0.0374   -6.5937 H   0  0  0  0  0  0  0  0  0  0  0  0
   -2.9311   -0.1914   -8.3573 H   0  0  0  0  0  0  0  0  0  0  0  0
   -4.9650   -1.5927   -4.0478 H   0  0  0  0  0  0  0  0  0  0  0  0
   -5.1797    0.1586   -4.2635 H   0  0  0  0  0  0  0  0  0  0  0  0
   -3.5305    0.5203   -2.5832 H   0  0  0  0  0  0  0  0  0  0  0  0
   -5.8384    0.4887   -1.9211 H   0  0  0  0  0  0  0  0  0  0  0  0
   -4.7155   -0.0424   -0.7043 H   0  0  0  0  0  0  0  0  0  0  0  0
   -5.2410   -2.4969   -1.4950 H   0  0  0  0  0  0  0  0  0  0  0  0
   -6.4871   -1.7905   -2.4884 H   0  0  0  0  0  0  0  0  0  0  0  0
   -5.4582   -0.2236    1.3503 H   0  0  0  0  0  0  0  0  0  0  0  0
   -3.3421   -1.0439    2.3289 H   0  0  0  0  0  0  0  0  0  0  0  0
   -2.8026   -3.4694    2.2260 H   0  0  0  0  0  0  0  0  0  0  0  0
   -4.5292   -5.0840    1.4999 H   0  0  0  0  0  0  0  0  0  0  0  0
   -8.7749   -0.7516   -2.0098 H   0  0  0  0  0  0  0  0  0  0  0  0
  -11.3168   -4.2190   -2.0647 H   0  0  0  0  0  0  0  0  0  0  0  0
   -9.7732   -5.3798   -0.5361 H   0  0  0  0  0  0  0  0  0  0  0  0
  1  2  2  0  0  0  0
  1  6  1  0  0  0  0
  1 26  1  0  0  0  0
  2  3  1  0  0  0  0
  2 27  1  0  0  0  0
  3  4  2  0  0  0  0
  3 28  1  0  0  0  0
  4  5  1  0  0  0  0
  4  7  1  0  0  0  0
  5  6  2  0  0  0  0
  5 29  1  0  0  0  0
  6 30  1  0  0  0  0
  7  8  1  0  0  0  0
  7 31  1  0  0  0  0
  7 32  1  0  0  0  0
  8  9  1  0  0  0  0
  8 33  1  0  0  0  0
  9 10  1  0  0  0  0
  9 34  1  0  0  0  0
  9 35  1  0  0  0  0
 10 11  1  0  0  0  0
 10 36  1  0  0  0  0
 10 37  1  0  0  0  0
 11 12  1  0  0  0  0
 11 20  1  0  0  0  0
 12 13  2  0  0  0  0
 12 17  1  0  0  0  0
 13 14  1  0  0  0  0
 13 38  1  0  0  0  0
 14 15  2  0  0  0  0
 14 39  1  0  0  0  0
 15 16  1  0  0  0  0
 15 40  1  0  0  0  0
 16 17  2  0  0  0  0
 16 41  1  0  0  0  0
 17 18  1  0  0  0  0
 18 19  1  0  0  0  0
 19 20  2  0  0  0  0
 19 24  1  0  0  0  0
 20 21  1  0  0  0  0
 21 22  2  0  0  0  0
 21 42  1  0  0  0  0
 22 23  1  0  0  0  0
 22 25  1  0  0  0  0
 23 24  2  0  0  0  0
 23 43  1  0  0  0  0
 24 44  1  0  0  0  0
M  END
$$$$
Target_lig_220
 OpenBabel04172516563D

 79 81  0  0  1  0  0  0  0  0999 V2000
    0.5023    1.3953    0.2123 C   0  0  0  0  0  0  0  0  0  0  0  0
    1.2637    0.1328    0.6346 C   0  0  3  0  0  0  0  0  0  0  0  0
    0.6340   -1.0743   -0.1301 C   0  0  3  0  0  0  0  0  0  0  0  0
   -0.8774   -1.2917    0.3055 C   0  0  3  0  0  0  0  0  0  0  0  0
   -1.6041   -0.0065   -0.1786 C   0  0  3  0  0  0  0  0  0  0  0  0
   -1.0084    1.2929    0.4300 C   0  0  3  0  0  0  0  0  0  0  0  0
   -1.6442    2.4666   -0.1637 N   0  0  0  0  0  0  0  0  0  0  0  0
   -1.6625    3.6806    0.4817 C   0  0  0  0  0  0  0  0  0  0  0  0
   -1.2152    3.8549    1.6137 O   0  0  0  0  0  0  0  0  0  0  0  0
   -2.2912    4.8267   -0.3227 C   0  0  3  0  0  0  0  0  0  0  0  0
   -3.7470    4.5017   -0.6529 C   0  0  0  0  0  0  0  0  0  0  0  0
   -4.4699    5.6044   -1.4182 C   0  0  0  0  0  0  0  0  0  0  0  0
   -3.8647    5.8399   -2.7272 N   0  0  0  0  0  0  0  0  0  0  0  0
   -2.2223    6.0465    0.4125 O   0  0  0  0  0  0  0  0  0  0  0  0
   -3.0090   -0.0597    0.0494 O   0  0  0  0  0  0  0  0  0  0  0  0
   -0.9589   -1.5063    1.7242 O   0  0  0  0  0  0  0  0  0  0  0  0
   -2.1825   -1.8359    2.3852 C   0  0  3  0  0  0  0  0  0  0  0  0
   -2.9904   -3.0670    1.9137 C   0  0  3  0  0  0  0  0  0  0  0  0
   -4.3784   -2.4944    1.6442 C   0  0  3  0  0  0  0  0  0  0  0  0
   -4.4348   -1.2509    2.5241 C   0  0  3  0  0  0  0  0  0  0  0  0
   -3.0815   -0.7130    2.5106 O   0  0  0  0  0  0  0  0  0  0  0  0
   -4.8827   -1.4677    3.9742 C   0  0  0  0  0  0  0  0  0  0  0  0
   -4.9322   -0.2041    4.6455 O   0  0  0  0  0  0  0  0  0  0  0  0
   -5.4256   -3.4231    1.8907 O   0  0  0  0  0  0  0  0  0  0  0  0
   -3.1413   -4.0421    2.9699 O   0  0  0  0  0  0  0  0  0  0  0  0
    1.4122   -2.2851   -0.1380 O   0  0  0  0  0  0  0  0  0  0  0  0
    2.7651   -2.1461   -0.6198 C   0  0  3  0  0  0  0  0  0  0  0  0
    2.9412   -1.6854   -2.1113 C   0  0  3  0  0  0  0  0  0  0  0  0
    2.6527   -2.8489   -3.0908 C   0  0  3  0  0  0  0  0  0  0  0  0
    3.3655   -4.1597   -2.7150 C   0  0  3  0  0  0  0  0  0  0  0  0
    3.0718   -4.4471   -1.2347 C   0  0  3  0  0  0  0  0  0  0  0  0
    3.5187   -3.3490   -0.4140 O   0  0  0  0  0  0  0  0  0  0  0  0
    3.7809   -5.7185   -0.7410 C   0  0  0  0  0  0  0  0  0  0  0  0
    3.4208   -5.9797    0.6623 N   0  0  0  0  0  0  0  0  0  0  0  0
    4.7768   -4.1093   -2.9681 O   0  0  0  0  0  0  0  0  0  0  0  0
    2.9891   -2.4453   -4.4259 O   0  0  0  0  0  0  0  0  0  0  0  0
    4.3064   -1.1333   -2.3834 N   0  0  0  0  0  0  0  0  0  0  0  0
    1.3059    0.0059    2.0969 N   0  0  0  0  0  0  0  0  0  0  0  0
    0.7015    1.5641   -0.8566 H   0  0  0  0  0  0  0  0  0  0  0  0
    0.9093    2.2748    0.7239 H   0  0  0  0  0  0  0  0  0  0  0  0
    2.2943    0.2838    0.3266 H   0  0  0  0  0  0  0  0  0  0  0  0
    0.5668   -0.7993   -1.1891 H   0  0  0  0  0  0  0  0  0  0  0  0
   -1.2846   -2.1736   -0.1958 H   0  0  0  0  0  0  0  0  0  0  0  0
   -1.5061    0.0444   -1.2696 H   0  0  0  0  0  0  0  0  0  0  0  0
   -1.2256    1.3210    1.5044 H   0  0  0  0  0  0  0  0  0  0  0  0
   -1.9297    2.4217   -1.1353 H   0  0  0  0  0  0  0  0  0  0  0  0
   -1.6925    4.9564   -1.2313 H   0  0  0  0  0  0  0  0  0  0  0  0
   -4.2909    4.3255    0.2841 H   0  0  0  0  0  0  0  0  0  0  0  0
   -3.8111    3.5680   -1.2255 H   0  0  0  0  0  0  0  0  0  0  0  0
   -4.4851    6.5353   -0.8419 H   0  0  0  0  0  0  0  0  0  0  0  0
   -5.5111    5.2982   -1.5662 H   0  0  0  0  0  0  0  0  0  0  0  0
   -2.9652    6.3053   -2.5932 H   0  0  0  0  0  0  0  0  0  0  0  0
   -4.4352    6.5248   -3.2254 H   0  0  0  0  0  0  0  0  0  0  0  0
   -2.0966    5.7908    1.3495 H   0  0  0  0  0  0  0  0  0  0  0  0
   -3.1396    0.2046    0.9862 H   0  0  0  0  0  0  0  0  0  0  0  0
   -1.8636   -2.0420    3.4156 H   0  0  0  0  0  0  0  0  0  0  0  0
   -2.5726   -3.5894    1.0508 H   0  0  0  0  0  0  0  0  0  0  0  0
   -4.4385   -2.1874    0.5947 H   0  0  0  0  0  0  0  0  0  0  0  0
   -5.0880   -0.4918    2.0776 H   0  0  0  0  0  0  0  0  0  0  0  0
   -4.1868   -2.0984    4.5333 H   0  0  0  0  0  0  0  0  0  0  0  0
   -5.8830   -1.9081    4.0260 H   0  0  0  0  0  0  0  0  0  0  0  0
   -4.1318    0.2858    4.3796 H   0  0  0  0  0  0  0  0  0  0  0  0
   -5.0701   -4.0584    2.5473 H   0  0  0  0  0  0  0  0  0  0  0  0
   -2.2710   -4.4646    3.0982 H   0  0  0  0  0  0  0  0  0  0  0  0
    3.2704   -1.4219    0.0228 H   0  0  0  0  0  0  0  0  0  0  0  0
    2.2504   -0.8751   -2.3637 H   0  0  0  0  0  0  0  0  0  0  0  0
    1.5732   -3.0388   -3.0914 H   0  0  0  0  0  0  0  0  0  0  0  0
    2.9870   -4.9734   -3.3438 H   0  0  0  0  0  0  0  0  0  0  0  0
    1.9898   -4.5720   -1.0981 H   0  0  0  0  0  0  0  0  0  0  0  0
    4.8648   -5.6071   -0.8004 H   0  0  0  0  0  0  0  0  0  0  0  0
    3.4829   -6.5829   -1.3513 H   0  0  0  0  0  0  0  0  0  0  0  0
    3.6546   -5.1376    1.1981 H   0  0  0  0  0  0  0  0  0  0  0  0
    4.0151   -6.7236    1.0232 H   0  0  0  0  0  0  0  0  0  0  0  0
    5.1107   -3.2588   -2.6401 H   0  0  0  0  0  0  0  0  0  0  0  0
    3.8530   -1.9904   -4.3428 H   0  0  0  0  0  0  0  0  0  0  0  0
    4.9685   -1.5390   -1.7197 H   0  0  0  0  0  0  0  0  0  0  0  0
    4.3034   -0.1395   -2.1316 H   0  0  0  0  0  0  0  0  0  0  0  0
    0.3851   -0.2793    2.4548 H   0  0  0  0  0  0  0  0  0  0  0  0
    1.5044    0.9083    2.5336 H   0  0  0  0  0  0  0  0  0  0  0  0
  1  2  1  0  0  0  0
  1  6  1  0  0  0  0
  1 39  1  0  0  0  0
  1 40  1  0  0  0  0
  2  3  1  0  0  0  0
  2 38  1  0  0  0  0
  2 41  1  0  0  0  0
  3  4  1  0  0  0  0
  3 26  1  0  0  0  0
  3 42  1  0  0  0  0
  4  5  1  0  0  0  0
  4 16  1  0  0  0  0
  4 43  1  0  0  0  0
  5  6  1  0  0  0  0
  5 15  1  0  0  0  0
  5 44  1  0  0  0  0
  6  7  1  0  0  0  0
  6 45  1  0  0  0  0
  7  8  1  0  0  0  0
  7 46  1  0  0  0  0
  8  9  2  0  0  0  0
  8 10  1  0  0  0  0
 10 11  1  0  0  0  0
 10 14  1  0  0  0  0
 10 47  1  0  0  0  0
 11 12  1  0  0  0  0
 11 48  1  0  0  0  0
 11 49  1  0  0  0  0
 12 13  1  0  0  0  0
 12 50  1  0  0  0  0
 12 51  1  0  0  0  0
 13 52  1  0  0  0  0
 13 53  1  0  0  0  0
 14 54  1  0  0  0  0
 15 55  1  0  0  0  0
 16 17  1  0  0  0  0
 17 18  1  0  0  0  0
 17 21  1  0  0  0  0
 17 56  1  0  0  0  0
 18 19  1  0  0  0  0
 18 25  1  0  0  0  0
 18 57  1  0  0  0  0
 19 20  1  0  0  0  0
 19 24  1  0  0  0  0
 19 58  1  0  0  0  0
 20 21  1  0  0  0  0
 20 22  1  0  0  0  0
 20 59  1  0  0  0  0
 22 23  1  0  0  0  0
 22 60  1  0  0  0  0
 22 61  1  0  0  0  0
 23 62  1  0  0  0  0
 24 63  1  0  0  0  0
 25 64  1  0  0  0  0
 26 27  1  0  0  0  0
 27 28  1  0  0  0  0
 27 32  1  0  0  0  0
 27 65  1  0  0  0  0
 28 29  1  0  0  0  0
 28 37  1  0  0  0  0
 28 66  1  0  0  0  0
 29 30  1  0  0  0  0
 29 36  1  0  0  0  0
 29 67  1  0  0  0  0
 30 31  1  0  0  0  0
 30 35  1  0  0  0  0
 30 68  1  0  0  0  0
 31 32  1  0  0  0  0
 31 33  1  0  0  0  0
 31 69  1  0  0  0  0
 33 34  1  0  0  0  0
 33 70  1  0  0  0  0
 33 71  1  0  0  0  0
 34 72  1  0  0  0  0
 34 73  1  0  0  0  0
 35 74  1  0  0  0  0
 36 75  1  0  0  0  0
 37 76  1  0  0  0  0
 37 77  1  0  0  0  0
 38 78  1  0  0  0  0
 38 79  1  0  0  0  0
M  END
$$$$
Target_lig_221
 OpenBabel04172516563D

 29 29  0  0  0  0  0  0  0  0999 V2000
    1.0847    0.0250    0.3560 C   0  0  0  0  0  0  0  0  0  0  0  0
    2.4487    0.4284    0.0241 N   0  0  0  0  0  0  0  0  0  0  0  0
    3.1617   -0.4627   -0.8929 C   0  0  0  0  0  0  0  0  0  0  0  0
    3.2146    0.8589    1.1278 C   0  0  0  0  0  0  0  0  0  0  0  0
    2.8195    0.4914    2.3827 N   0  0  0  0  0  0  0  0  0  0  0  0
    3.5296    0.9474    3.4472 C   0  0  0  0  0  0  0  0  0  0  0  0
    4.6409    1.7847    3.2635 C   0  0  0  0  0  0  0  0  0  0  0  0
    5.0800    2.1637    2.0377 N   0  0  0  0  0  0  0  0  0  0  0  0
    4.3524    1.6894    0.9991 C   0  0  0  0  0  0  0  0  0  0  0  0
    4.9042    2.3345   -0.5012 Cl  0  0  0  0  0  0  0  0  0  0  0  0
    5.3311    2.3988    4.4367 C   0  0  0  0  0  0  0  0  0  0  0  0
    4.6915    2.6280    5.4668 O   0  0  0  0  0  0  0  0  0  0  0  0
    6.6664    2.6837    4.2707 N   0  0  0  0  0  0  0  0  0  0  0  0
    7.1635    3.7146    4.8547 C   0  0  0  0  0  0  0  0  0  0  0  0
    6.5640    4.6438    5.6380 N   0  0  0  0  0  0  0  0  0  0  0  0
    8.4786    4.0065    4.7261 N   0  0  0  0  0  0  0  0  0  0  0  0
    3.1367    0.4318    4.6833 N   0  0  0  0  0  0  0  0  0  0  0  0
    0.5596   -0.3158   -0.5447 H   0  0  0  0  0  0  0  0  0  0  0  0
    0.5189    0.8847    0.7339 H   0  0  0  0  0  0  0  0  0  0  0  0
    1.0443   -0.7894    1.0875 H   0  0  0  0  0  0  0  0  0  0  0  0
    2.4585   -1.0409   -1.5045 H   0  0  0  0  0  0  0  0  0  0  0  0
    3.8026   -1.1786   -0.3661 H   0  0  0  0  0  0  0  0  0  0  0  0
    3.7674    0.1072   -1.6026 H   0  0  0  0  0  0  0  0  0  0  0  0
    5.6495    4.3319    5.9637 H   0  0  0  0  0  0  0  0  0  0  0  0
    7.1407    4.9211    6.4229 H   0  0  0  0  0  0  0  0  0  0  0  0
    8.9010    3.4526    3.9869 H   0  0  0  0  0  0  0  0  0  0  0  0
    8.6543    4.9943    4.5880 H   0  0  0  0  0  0  0  0  0  0  0  0
    2.2580   -0.0673    4.5908 H   0  0  0  0  0  0  0  0  0  0  0  0
    3.1400    1.1349    5.4224 H   0  0  0  0  0  0  0  0  0  0  0  0
  1  2  1  0  0  0  0
  1 18  1  0  0  0  0
  1 19  1  0  0  0  0
  1 20  1  0  0  0  0
  2  3  1  0  0  0  0
  2  4  1  0  0  0  0
  3 21  1  0  0  0  0
  3 22  1  0  0  0  0
  3 23  1  0  0  0  0
  4  5  2  0  0  0  0
  4  9  1  0  0  0  0
  5  6  1  0  0  0  0
  6  7  2  0  0  0  0
  6 17  1  0  0  0  0
  7  8  1  0  0  0  0
  7 11  1  0  0  0  0
  8  9  2  0  0  0  0
  9 10  1  0  0  0  0
 11 12  2  0  0  0  0
 11 13  1  0  0  0  0
 13 14  2  0  0  0  0
 14 15  1  0  0  0  0
 14 16  1  0  0  0  0
 15 24  1  0  0  0  0
 15 25  1  0  0  0  0
 16 26  1  0  0  0  0
 16 27  1  0  0  0  0
 17 28  1  0  0  0  0
 17 29  1  0  0  0  0
M  END
$$$$
Target_lig_225
 OpenBabel04172516562D

 55 58  0  0  1  0  0  0  0  0999 V2000
    0.0000    0.0000    0.0000 C   0  0  0  0  0  0  0  0  0  0  0  0
    0.0000    0.0000    0.0000 C   0  0  0  0  0  0  0  0  0  0  0  0
    0.0000    0.0000    0.0000 O   0  0  0  0  0  0  0  0  0  0  0  0
    0.0000    0.0000    0.0000 C   0  0  0  0  0  0  0  0  0  0  0  0
    0.0000    0.0000    0.0000 C   0  0  1  0  0  0  0  0  0  0  0  0
    0.0000    0.0000    0.0000 C   0  0  0  0  0  0  0  0  0  0  0  0
    0.0000    0.0000    0.0000 C   0  0  0  0  0  0  0  0  0  0  0  0
    0.0000    0.0000    0.0000 C   0  0  0  0  0  0  0  0  0  0  0  0
    0.0000    0.0000    0.0000 C   0  0  0  0  0  0  0  0  0  0  0  0
    0.0000    0.0000    0.0000 C   0  0  0  0  0  0  0  0  0  0  0  0
    0.0000    0.0000    0.0000 N   0  0  0  0  0  0  0  0  0  0  0  0
    0.0000    0.0000    0.0000 C   0  0  0  0  0  0  0  0  0  0  0  0
    0.0000    0.0000    0.0000 C   0  0  1  0  0  0  0  0  0  0  0  0
    0.0000    0.0000    0.0000 C   0  0  0  0  0  0  0  0  0  0  0  0
    0.0000    0.0000    0.0000 C   0  0  1  0  0  0  0  0  0  0  0  0
    0.0000    0.0000    0.0000 C   0  0  0  0  0  0  0  0  0  0  0  0
    0.0000    0.0000    0.0000 N   0  0  0  0  0  0  0  0  0  0  0  0
    0.0000    0.0000    0.0000 C   0  0  0  0  0  0  0  0  0  0  0  0
    0.0000    0.0000    0.0000 N   0  0  0  0  0  0  0  0  0  0  0  0
    0.0000    0.0000    0.0000 C   0  0  0  0  0  0  0  0  0  0  0  0
    0.0000    0.0000    0.0000 C   0  0  0  0  0  0  0  0  0  0  0  0
    0.0000    0.0000    0.0000 C   0  0  0  0  0  0  0  0  0  0  0  0
    0.0000    0.0000    0.0000 N   0  0  0  0  0  0  0  0  0  0  0  0
    0.0000    0.0000    0.0000 C   0  0  0  0  0  0  0  0  0  0  0  0
    0.0000    0.0000    0.0000 C   0  0  0  0  0  0  0  0  0  0  0  0
    0.0000    0.0000    0.0000 H   0  0  0  0  0  0  0  0  0  0  0  0
    0.0000    0.0000    0.0000 H   0  0  0  0  0  0  0  0  0  0  0  0
    0.0000    0.0000    0.0000 H   0  0  0  0  0  0  0  0  0  0  0  0
    0.0000    0.0000    0.0000 H   0  0  0  0  0  0  0  0  0  0  0  0
    0.0000    0.0000    0.0000 H   0  0  0  0  0  0  0  0  0  0  0  0
    0.0000    0.0000    0.0000 H   0  0  0  0  0  0  0  0  0  0  0  0
    0.0000    0.0000    0.0000 H   0  0  0  0  0  0  0  0  0  0  0  0
    0.0000    0.0000    0.0000 H   0  0  0  0  0  0  0  0  0  0  0  0
    0.0000    0.0000    0.0000 H   0  0  0  0  0  0  0  0  0  0  0  0
    0.0000    0.0000    0.0000 H   0  0  0  0  0  0  0  0  0  0  0  0
    0.0000    0.0000    0.0000 H   0  0  0  0  0  0  0  0  0  0  0  0
    0.0000    0.0000    0.0000 H   0  0  0  0  0  0  0  0  0  0  0  0
    0.0000    0.0000    0.0000 H   0  0  0  0  0  0  0  0  0  0  0  0
    0.0000    0.0000    0.0000 H   0  0  0  0  0  0  0  0  0  0  0  0
    0.0000    0.0000    0.0000 H   0  0  0  0  0  0  0  0  0  0  0  0
    0.0000    0.0000    0.0000 H   0  0  0  0  0  0  0  0  0  0  0  0
    0.0000    0.0000    0.0000 H   0  0  0  0  0  0  0  0  0  0  0  0
    0.0000    0.0000    0.0000 H   0  0  0  0  0  0  0  0  0  0  0  0
    0.0000    0.0000    0.0000 H   0  0  0  0  0  0  0  0  0  0  0  0
    0.0000    0.0000    0.0000 H   0  0  0  0  0  0  0  0  0  0  0  0
    0.0000    0.0000    0.0000 H   0  0  0  0  0  0  0  0  0  0  0  0
    0.0000    0.0000    0.0000 H   0  0  0  0  0  0  0  0  0  0  0  0
    0.0000    0.0000    0.0000 H   0  0  0  0  0  0  0  0  0  0  0  0
    0.0000    0.0000    0.0000 H   0  0  0  0  0  0  0  0  0  0  0  0
    0.0000    0.0000    0.0000 H   0  0  0  0  0  0  0  0  0  0  0  0
    0.0000    0.0000    0.0000 H   0  0  0  0  0  0  0  0  0  0  0  0
    0.0000    0.0000    0.0000 H   0  0  0  0  0  0  0  0  0  0  0  0
    0.0000    0.0000    0.0000 H   0  0  0  0  0  0  0  0  0  0  0  0
    0.0000    0.0000    0.0000 H   0  0  0  0  0  0  0  0  0  0  0  0
    0.0000    0.0000    0.0000 H   0  0  0  0  0  0  0  0  0  0  0  0
  1 10  2  0  0  0  0
  1  2  1  0  0  0  0
  1 26  1  0  0  0  0
  2  7  2  0  0  0  0
  2  3  1  0  0  0  0
  3  4  1  0  0  0  0
  4  5  1  0  0  0  0
  4 27  1  0  0  0  0
  4 28  1  0  0  0  0
  5  6  1  0  0  0  0
  5 22  1  0  0  0  0
  5 29  1  0  0  0  0
  6  7  1  0  0  0  0
  6 30  1  0  0  0  0
  6 31  1  0  0  0  0
  7  8  1  0  0  0  0
  8 13  1  0  0  0  0
  8  9  2  0  0  0  0
  9 10  1  0  0  0  0
  9 11  1  1  0  0  0
 10 32  1  0  0  0  0
 11 12  2  0  0  0  0
 12 17  1  6  0  0  0
 12 13  1  1  0  0  0
 13 14  1  0  0  0  0
 13 33  1  0  0  0  0
 14 15  1  0  0  0  0
 14 34  1  0  0  0  0
 14 35  1  0  0  0  0
 15 16  1  0  0  0  0
 15 18  1  0  0  0  0
 15 36  1  0  0  0  0
 16 17  1  0  0  0  0
 16 37  1  0  0  0  0
 16 38  1  0  0  0  0
 17 39  1  0  0  0  0
 18 19  1  0  0  0  0
 18 40  1  0  0  0  0
 18 41  1  0  0  0  0
 19 20  1  0  0  0  0
 19 21  1  0  0  0  0
 20 42  1  0  0  0  0
 20 43  1  0  0  0  0
 20 44  1  0  0  0  0
 21 45  1  0  0  0  0
 21 46  1  0  0  0  0
 21 47  1  0  0  0  0
 22 23  1  0  0  0  0
 22 48  1  0  0  0  0
 22 49  1  0  0  0  0
 23 24  1  0  0  0  0
 23 25  1  0  0  0  0
 24 50  1  0  0  0  0
 24 51  1  0  0  0  0
 24 52  1  0  0  0  0
 25 53  1  0  0  0  0
 25 54  1  0  0  0  0
 25 55  1  0  0  0  0
M  END
$$$$
Target_lig_226
 OpenBabel04172516563D

 52 53  0  0  0  0  0  0  0  0999 V2000
    2.8186   -0.1989   -3.1199 C   0  0  0  0  0  0  0  0  0  0  0  0
    2.3755    0.9621   -2.3421 N   0  0  0  0  0  0  0  0  0  0  0  0
    0.9110    0.9814   -2.2910 C   0  0  0  0  0  0  0  0  0  0  0  0
    2.9481    0.9480   -0.9864 C   0  0  0  0  0  0  0  0  0  0  0  0
    4.4786    1.0327   -0.9895 C   0  0  0  0  0  0  0  0  0  0  0  0
    4.9882    2.2865   -1.6997 C   0  0  0  0  0  0  0  0  0  0  0  0
    6.4359    2.3196   -1.7101 N   0  0  0  0  0  0  0  0  0  0  0  0
    7.2444    1.7894   -2.6938 C   0  0  0  0  0  0  0  0  0  0  0  0
    8.5318    2.0150   -2.2200 C   0  0  0  0  0  0  0  0  0  0  0  0
    9.6280    1.5952   -2.9819 C   0  0  0  0  0  0  0  0  0  0  0  0
    9.3998    0.9504   -4.2045 C   0  0  0  0  0  0  0  0  0  0  0  0
    8.0995    0.7195   -4.6605 C   0  0  0  0  0  0  0  0  0  0  0  0
    6.9928    1.1483   -3.9148 C   0  0  0  0  0  0  0  0  0  0  0  0
    7.7924    0.1261   -5.8594 O   0  0  0  0  0  0  0  0  0  0  0  0
    8.7377   -0.8471   -6.3146 C   0  0  0  0  0  0  0  0  0  0  0  0
    8.2287   -1.4280   -7.6303 C   0  0  0  0  0  0  0  0  0  0  0  0
    9.1767   -2.4991   -8.1806 C   0  0  0  0  0  0  0  0  0  0  0  0
    9.3700   -3.6405   -7.2708 N   0  0  0  0  0  0  0  0  0  0  0  0
    8.1164   -4.3427   -6.9866 C   0  0  0  0  0  0  0  0  0  0  0  0
   10.3437   -4.5799   -7.8322 C   0  0  0  0  0  0  0  0  0  0  0  0
    8.5135    2.6560   -1.0065 N   0  0  0  0  0  0  0  0  0  0  0  0
    7.2467    2.8334   -0.7272 C   0  0  0  0  0  0  0  0  0  0  0  0
    6.7770    3.4215    0.3856 N   0  0  0  0  0  0  0  0  0  0  0  0
    2.3979   -0.1697   -4.1297 H   0  0  0  0  0  0  0  0  0  0  0  0
    2.5323   -1.1414   -2.6410 H   0  0  0  0  0  0  0  0  0  0  0  0
    3.9032   -0.1966   -3.2588 H   0  0  0  0  0  0  0  0  0  0  0  0
    0.4939    0.9726   -3.3051 H   0  0  0  0  0  0  0  0  0  0  0  0
    0.5466    1.8976   -1.8137 H   0  0  0  0  0  0  0  0  0  0  0  0
    0.5051    0.1201   -1.7480 H   0  0  0  0  0  0  0  0  0  0  0  0
    2.6427    0.0422   -0.4460 H   0  0  0  0  0  0  0  0  0  0  0  0
    2.5632    1.8027   -0.4138 H   0  0  0  0  0  0  0  0  0  0  0  0
    4.9127    0.1389   -1.4546 H   0  0  0  0  0  0  0  0  0  0  0  0
    4.8397    1.0108    0.0456 H   0  0  0  0  0  0  0  0  0  0  0  0
    4.6267    3.1949   -1.2046 H   0  0  0  0  0  0  0  0  0  0  0  0
    4.6507    2.3382   -2.7398 H   0  0  0  0  0  0  0  0  0  0  0  0
   10.6366    1.7795   -2.6265 H   0  0  0  0  0  0  0  0  0  0  0  0
   10.2691    0.6634   -4.7854 H   0  0  0  0  0  0  0  0  0  0  0  0
    5.9841    0.9803   -4.2766 H   0  0  0  0  0  0  0  0  0  0  0  0
    8.8388   -1.6323   -5.5560 H   0  0  0  0  0  0  0  0  0  0  0  0
    9.7119   -0.3858   -6.5058 H   0  0  0  0  0  0  0  0  0  0  0  0
    8.1291   -0.6179   -8.3640 H   0  0  0  0  0  0  0  0  0  0  0  0
    7.2120   -1.8168   -7.5058 H   0  0  0  0  0  0  0  0  0  0  0  0
   10.1474   -2.0220   -8.3621 H   0  0  0  0  0  0  0  0  0  0  0  0
    8.8075   -2.8392   -9.1585 H   0  0  0  0  0  0  0  0  0  0  0  0
    7.4096   -3.6994   -6.4529 H   0  0  0  0  0  0  0  0  0  0  0  0
    8.2946   -5.1947   -6.3218 H   0  0  0  0  0  0  0  0  0  0  0  0
    7.6347   -4.7074   -7.9003 H   0  0  0  0  0  0  0  0  0  0  0  0
   11.3088   -4.0886   -7.9961 H   0  0  0  0  0  0  0  0  0  0  0  0
   10.0031   -5.0042   -8.7834 H   0  0  0  0  0  0  0  0  0  0  0  0
   10.5274   -5.4041   -7.1333 H   0  0  0  0  0  0  0  0  0  0  0  0
    7.4485    3.6113    1.1177 H   0  0  0  0  0  0  0  0  0  0  0  0
    5.8176    3.3391    0.6972 H   0  0  0  0  0  0  0  0  0  0  0  0
  1  2  1  0  0  0  0
  1 24  1  0  0  0  0
  1 25  1  0  0  0  0
  1 26  1  0  0  0  0
  2  3  1  0  0  0  0
  2  4  1  0  0  0  0
  3 27  1  0  0  0  0
  3 28  1  0  0  0  0
  3 29  1  0  0  0  0
  4  5  1  0  0  0  0
  4 30  1  0  0  0  0
  4 31  1  0  0  0  0
  5  6  1  0  0  0  0
  5 32  1  0  0  0  0
  5 33  1  0  0  0  0
  6  7  1  0  0  0  0
  6 34  1  0  0  0  0
  6 35  1  0  0  0  0
  7  8  1  0  0  0  0
  7 22  1  0  0  0  0
  8  9  2  0  0  0  0
  8 13  1  0  0  0  0
  9 10  1  0  0  0  0
  9 21  1  0  0  0  0
 10 11  2  0  0  0  0
 10 36  1  0  0  0  0
 11 12  1  0  0  0  0
 11 37  1  0  0  0  0
 12 13  2  0  0  0  0
 12 14  1  0  0  0  0
 13 38  1  0  0  0  0
 14 15  1  0  0  0  0
 15 16  1  0  0  0  0
 15 39  1  0  0  0  0
 15 40  1  0  0  0  0
 16 17  1  0  0  0  0
 16 41  1  0  0  0  0
 16 42  1  0  0  0  0
 17 18  1  0  0  0  0
 17 43  1  0  0  0  0
 17 44  1  0  0  0  0
 18 19  1  0  0  0  0
 18 20  1  0  0  0  0
 19 45  1  0  0  0  0
 19 46  1  0  0  0  0
 19 47  1  0  0  0  0
 20 48  1  0  0  0  0
 20 49  1  0  0  0  0
 20 50  1  0  0  0  0
 21 22  2  0  0  0  0
 22 23  1  0  0  0  0
 23 51  1  0  0  0  0
 23 52  1  0  0  0  0
M  END
$$$$
Target_lig_243
 OpenBabel04172516563D

 57 59  0  0  0  0  0  0  0  0999 V2000
    2.1289   -2.4050   -1.3519 C   0  0  0  0  0  0  0  0  0  0  0  0
    3.2861   -2.7540   -0.4229 C   0  0  0  0  0  0  0  0  0  0  0  0
    2.9508   -4.0026    0.3959 C   0  0  0  0  0  0  0  0  0  0  0  0
    4.4481   -3.0167   -1.2627 N   0  0  0  0  0  0  0  0  0  0  0  0
    5.6158   -2.4887   -1.1365 C   0  0  0  0  0  0  0  0  0  0  0  0
    6.1090   -1.6168   -0.0241 C   0  0  0  0  0  0  0  0  0  0  0  0
    5.6382   -1.7436    1.2858 C   0  0  0  0  0  0  0  0  0  0  0  0
    6.0511   -0.8747    2.2901 C   0  0  0  0  0  0  0  0  0  0  0  0
    7.0712    0.0274    2.0307 C   0  0  0  0  0  0  0  0  0  0  0  0
    7.6978    0.0326    0.7776 C   0  0  0  0  0  0  0  0  0  0  0  0
    7.1531   -0.7190   -0.2698 C   0  0  0  0  0  0  0  0  0  0  0  0
    9.0173    0.6197    0.6381 C   0  0  0  0  0  0  0  0  0  0  0  0
   10.1127    0.3122   -0.1446 C   0  0  0  0  0  0  0  0  0  0  0  0
   11.1970    1.0495    0.3841 C   0  0  0  0  0  0  0  0  0  0  0  0
   10.6836    1.8112    1.4112 C   0  0  0  0  0  0  0  0  0  0  0  0
    9.3566    1.5572    1.5611 O   0  0  0  0  0  0  0  0  0  0  0  0
   11.2399    2.7860    2.3236 C   0  0  0  0  0  0  0  0  0  0  0  0
   12.6018    2.7395    2.6642 C   0  0  0  0  0  0  0  0  0  0  0  0
   13.2003    3.7349    3.4533 C   0  0  0  0  0  0  0  0  0  0  0  0
   12.3581    4.7539    3.9208 C   0  0  0  0  0  0  0  0  0  0  0  0
   10.9940    4.7964    3.6167 C   0  0  0  0  0  0  0  0  0  0  0  0
   10.4360    3.8092    2.8287 C   0  0  0  0  0  0  0  0  0  0  0  0
   14.6876    3.6297    3.7547 C   0  0  0  0  0  0  0  0  0  0  0  0
   15.4814    4.4845    4.3085 N   0  0  0  0  0  0  0  0  0  0  0  0
   15.1191    5.7893    4.8315 C   0  0  0  0  0  0  0  0  0  0  0  0
   14.6245    5.6086    6.2655 C   0  0  0  0  0  0  0  0  0  0  0  0
   16.3358    6.7086    4.8046 C   0  0  0  0  0  0  0  0  0  0  0  0
   15.3575    2.4796    3.4010 N   0  0  0  0  0  0  0  0  0  0  0  0
    6.4798   -2.7743   -2.1647 N   0  0  0  0  0  0  0  0  0  0  0  0
    1.2300   -2.1702   -0.7724 H   0  0  0  0  0  0  0  0  0  0  0  0
    1.8996   -3.2295   -2.0335 H   0  0  0  0  0  0  0  0  0  0  0  0
    2.3806   -1.5268   -1.9563 H   0  0  0  0  0  0  0  0  0  0  0  0
    3.4025   -1.8901    0.2330 H   0  0  0  0  0  0  0  0  0  0  0  0
    3.0652   -4.9172   -0.1951 H   0  0  0  0  0  0  0  0  0  0  0  0
    1.9243   -3.9620    0.7747 H   0  0  0  0  0  0  0  0  0  0  0  0
    3.6077   -4.1055    1.2648 H   0  0  0  0  0  0  0  0  0  0  0  0
    4.9510   -2.5309    1.5570 H   0  0  0  0  0  0  0  0  0  0  0  0
    5.6240   -0.9479    3.2861 H   0  0  0  0  0  0  0  0  0  0  0  0
    7.4399    0.6527    2.8408 H   0  0  0  0  0  0  0  0  0  0  0  0
    7.5810   -0.6368   -1.2659 H   0  0  0  0  0  0  0  0  0  0  0  0
   10.1475   -0.4177   -0.9373 H   0  0  0  0  0  0  0  0  0  0  0  0
   12.2265    1.0271    0.0555 H   0  0  0  0  0  0  0  0  0  0  0  0
   13.1832    1.8978    2.3040 H   0  0  0  0  0  0  0  0  0  0  0  0
   12.6909    5.5551    4.5577 H   0  0  0  0  0  0  0  0  0  0  0  0
   10.3775    5.6093    3.9934 H   0  0  0  0  0  0  0  0  0  0  0  0
    9.3745    3.8485    2.5944 H   0  0  0  0  0  0  0  0  0  0  0  0
   14.3947    6.2882    4.1888 H   0  0  0  0  0  0  0  0  0  0  0  0
   15.4521    5.3778    6.9441 H   0  0  0  0  0  0  0  0  0  0  0  0
   13.9113    4.7805    6.3534 H   0  0  0  0  0  0  0  0  0  0  0  0
   14.1311    6.5176    6.6196 H   0  0  0  0  0  0  0  0  0  0  0  0
   17.1463    6.3386    5.4363 H   0  0  0  0  0  0  0  0  0  0  0  0
   16.0531    7.7087    5.1597 H   0  0  0  0  0  0  0  0  0  0  0  0
   16.7238    6.8105    3.7860 H   0  0  0  0  0  0  0  0  0  0  0  0
   15.1756    2.1028    2.4805 H   0  0  0  0  0  0  0  0  0  0  0  0
   16.3562    2.6145    3.5392 H   0  0  0  0  0  0  0  0  0  0  0  0
    6.1405   -3.5261   -2.7554 H   0  0  0  0  0  0  0  0  0  0  0  0
    7.4686   -2.8158   -1.9714 H   0  0  0  0  0  0  0  0  0  0  0  0
  1  2  1  0  0  0  0
  1 30  1  0  0  0  0
  1 31  1  0  0  0  0
  1 32  1  0  0  0  0
  2  3  1  0  0  0  0
  2  4  1  0  0  0  0
  2 33  1  0  0  0  0
  3 34  1  0  0  0  0
  3 35  1  0  0  0  0
  3 36  1  0  0  0  0
  4  5  2  3  0  0  0
  5  6  1  0  0  0  0
  5 29  1  0  0  0  0
  6  7  2  0  0  0  0
  6 11  1  0  0  0  0
  7  8  1  0  0  0  0
  7 37  1  0  0  0  0
  8  9  2  0  0  0  0
  8 38  1  0  0  0  0
  9 10  1  0  0  0  0
  9 39  1  0  0  0  0
 10 11  2  0  0  0  0
 10 12  1  0  0  0  0
 11 40  1  0  0  0  0
 12 13  2  0  0  0  0
 12 16  1  0  0  0  0
 13 14  1  0  0  0  0
 13 41  1  0  0  0  0
 14 15  2  0  0  0  0
 14 42  1  0  0  0  0
 15 16  1  0  0  0  0
 15 17  1  0  0  0  0
 17 18  2  0  0  0  0
 17 22  1  0  0  0  0
 18 19  1  0  0  0  0
 18 43  1  0  0  0  0
 19 20  2  0  0  0  0
 19 23  1  0  0  0  0
 20 21  1  0  0  0  0
 20 44  1  0  0  0  0
 21 22  2  0  0  0  0
 21 45  1  0  0  0  0
 22 46  1  0  0  0  0
 23 24  2  3  0  0  0
 23 28  1  0  0  0  0
 24 25  1  0  0  0  0
 25 26  1  0  0  0  0
 25 27  1  0  0  0  0
 25 47  1  0  0  0  0
 26 48  1  0  0  0  0
 26 49  1  0  0  0  0
 26 50  1  0  0  0  0
 27 51  1  0  0  0  0
 27 52  1  0  0  0  0
 27 53  1  0  0  0  0
 28 54  1  0  0  0  0
 28 55  1  0  0  0  0
 29 56  1  0  0  0  0
 29 57  1  0  0  0  0
M  END
$$$$
Target_lig_244
 OpenBabel04172516563D

 67 69  0  0  0  0  0  0  0  0999 V2000
    1.3776   -2.0413    1.2423 C   0  0  0  0  0  0  0  0  0  0  0  0
    2.6433   -1.3183    1.1332 N   0  0  0  0  0  0  0  0  0  0  0  0
    2.4570    0.0766    1.5415 C   0  0  0  0  0  0  0  0  0  0  0  0
    3.6965   -2.0144    1.9104 C   0  0  0  0  0  0  0  0  0  0  0  0
    5.0436   -1.3164    1.7378 C   0  0  0  0  0  0  0  0  0  0  0  0
    6.1461   -2.0141    2.3967 N   0  0  0  0  0  0  0  0  0  0  0  0
    7.3652   -1.8039    2.0099 C   0  0  0  0  0  0  0  0  0  0  0  0
    7.8367   -0.8723    0.9255 C   0  0  0  0  0  0  0  0  0  0  0  0
    7.1913    0.3252    0.5944 C   0  0  0  0  0  0  0  0  0  0  0  0
    7.5897    1.0774   -0.5087 C   0  0  0  0  0  0  0  0  0  0  0  0
    8.7386    0.7215   -1.2006 C   0  0  0  0  0  0  0  0  0  0  0  0
    9.4992   -0.3729   -0.7764 C   0  0  0  0  0  0  0  0  0  0  0  0
    9.0008   -1.2086    0.2327 C   0  0  0  0  0  0  0  0  0  0  0  0
   10.8657   -0.5465   -1.2334 C   0  0  0  0  0  0  0  0  0  0  0  0
   11.9736   -1.1180   -0.6447 C   0  0  0  0  0  0  0  0  0  0  0  0
   13.0691   -0.8005   -1.4703 C   0  0  0  0  0  0  0  0  0  0  0  0
   12.5705   -0.0734   -2.5328 C   0  0  0  0  0  0  0  0  0  0  0  0
   11.2188    0.0711   -2.3958 O   0  0  0  0  0  0  0  0  0  0  0  0
   13.1905    0.5502   -3.6914 C   0  0  0  0  0  0  0  0  0  0  0  0
   14.5746    0.4096   -3.8789 C   0  0  0  0  0  0  0  0  0  0  0  0
   15.2262    0.9684   -4.9827 C   0  0  0  0  0  0  0  0  0  0  0  0
   14.4616    1.6598   -5.9279 C   0  0  0  0  0  0  0  0  0  0  0  0
   13.0932    1.8596   -5.7285 C   0  0  0  0  0  0  0  0  0  0  0  0
   12.4597    1.3022   -4.6179 C   0  0  0  0  0  0  0  0  0  0  0  0
   16.7241    0.7907   -5.0612 C   0  0  0  0  0  0  0  0  0  0  0  0
   17.6019    1.6427   -5.5004 N   0  0  0  0  0  0  0  0  0  0  0  0
   17.1501    2.9525   -5.9556 C   0  0  0  0  0  0  0  0  0  0  0  0
   18.2217    4.0415   -5.8521 C   0  0  0  0  0  0  0  0  0  0  0  0
   17.7011    5.3317   -6.3692 N   0  0  0  0  0  0  0  0  0  0  0  0
   16.5256    5.8007   -5.6313 C   0  0  0  0  0  0  0  0  0  0  0  0
   18.7453    6.3557   -6.3349 C   0  0  0  0  0  0  0  0  0  0  0  0
   17.2447   -0.3899   -4.5919 N   0  0  0  0  0  0  0  0  0  0  0  0
    8.3068   -2.5322    2.6951 N   0  0  0  0  0  0  0  0  0  0  0  0
    0.6107   -1.5634    0.6208 H   0  0  0  0  0  0  0  0  0  0  0  0
    1.0129   -2.0766    2.2742 H   0  0  0  0  0  0  0  0  0  0  0  0
    1.4858   -3.0651    0.8710 H   0  0  0  0  0  0  0  0  0  0  0  0
    1.6233    0.5348    0.9967 H   0  0  0  0  0  0  0  0  0  0  0  0
    3.3297    0.6861    1.2886 H   0  0  0  0  0  0  0  0  0  0  0  0
    2.2607    0.1712    2.6153 H   0  0  0  0  0  0  0  0  0  0  0  0
    3.7943   -3.0417    1.5498 H   0  0  0  0  0  0  0  0  0  0  0  0
    3.4337   -2.0679    2.9775 H   0  0  0  0  0  0  0  0  0  0  0  0
    4.9715   -0.3305    2.2062 H   0  0  0  0  0  0  0  0  0  0  0  0
    5.2073   -1.2303    0.6582 H   0  0  0  0  0  0  0  0  0  0  0  0
    6.3595    0.7044    1.1730 H   0  0  0  0  0  0  0  0  0  0  0  0
    7.0267    1.9611   -0.7969 H   0  0  0  0  0  0  0  0  0  0  0  0
    9.0781    1.3495   -2.0211 H   0  0  0  0  0  0  0  0  0  0  0  0
    9.5423   -2.1144    0.4953 H   0  0  0  0  0  0  0  0  0  0  0  0
   12.0010   -1.6292    0.3070 H   0  0  0  0  0  0  0  0  0  0  0  0
   14.1062   -1.0418   -1.2880 H   0  0  0  0  0  0  0  0  0  0  0  0
   15.1644   -0.1295   -3.1429 H   0  0  0  0  0  0  0  0  0  0  0  0
   14.9087    2.0738   -6.8245 H   0  0  0  0  0  0  0  0  0  0  0  0
   12.5219    2.4512   -6.4407 H   0  0  0  0  0  0  0  0  0  0  0  0
   11.3912    1.4602   -4.4846 H   0  0  0  0  0  0  0  0  0  0  0  0
   16.3118    3.2744   -5.3368 H   0  0  0  0  0  0  0  0  0  0  0  0
   16.8517    2.8749   -7.0066 H   0  0  0  0  0  0  0  0  0  0  0  0
   19.0915    3.7330   -6.4470 H   0  0  0  0  0  0  0  0  0  0  0  0
   18.5618    4.1388   -4.8132 H   0  0  0  0  0  0  0  0  0  0  0  0
   15.6572    5.1606   -5.8179 H   0  0  0  0  0  0  0  0  0  0  0  0
   16.2189    6.7951   -5.9736 H   0  0  0  0  0  0  0  0  0  0  0  0
   16.7058    5.8450   -4.5516 H   0  0  0  0  0  0  0  0  0  0  0  0
   19.6029    6.0557   -6.9468 H   0  0  0  0  0  0  0  0  0  0  0  0
   19.0926    6.5592   -5.3164 H   0  0  0  0  0  0  0  0  0  0  0  0
   18.3706    7.2926   -6.7651 H   0  0  0  0  0  0  0  0  0  0  0  0
   16.6888   -1.2212   -4.7541 H   0  0  0  0  0  0  0  0  0  0  0  0
   18.2156   -0.5019   -4.8660 H   0  0  0  0  0  0  0  0  0  0  0  0
    7.9066   -2.9318    3.5381 H   0  0  0  0  0  0  0  0  0  0  0  0
    9.2043   -2.0911    2.8478 H   0  0  0  0  0  0  0  0  0  0  0  0
  1  2  1  0  0  0  0
  1 34  1  0  0  0  0
  1 35  1  0  0  0  0
  1 36  1  0  0  0  0
  2  3  1  0  0  0  0
  2  4  1  0  0  0  0
  3 37  1  0  0  0  0
  3 38  1  0  0  0  0
  3 39  1  0  0  0  0
  4  5  1  0  0  0  0
  4 40  1  0  0  0  0
  4 41  1  0  0  0  0
  5  6  1  0  0  0  0
  5 42  1  0  0  0  0
  5 43  1  0  0  0  0
  6  7  2  3  0  0  0
  7  8  1  0  0  0  0
  7 33  1  0  0  0  0
  8  9  2  0  0  0  0
  8 13  1  0  0  0  0
  9 10  1  0  0  0  0
  9 44  1  0  0  0  0
 10 11  2  0  0  0  0
 10 45  1  0  0  0  0
 11 12  1  0  0  0  0
 11 46  1  0  0  0  0
 12 13  2  0  0  0  0
 12 14  1  0  0  0  0
 13 47  1  0  0  0  0
 14 15  2  0  0  0  0
 14 18  1  0  0  0  0
 15 16  1  0  0  0  0
 15 48  1  0  0  0  0
 16 17  2  0  0  0  0
 16 49  1  0  0  0  0
 17 18  1  0  0  0  0
 17 19  1  0  0  0  0
 19 20  2  0  0  0  0
 19 24  1  0  0  0  0
 20 21  1  0  0  0  0
 20 50  1  0  0  0  0
 21 22  2  0  0  0  0
 21 25  1  0  0  0  0
 22 23  1  0  0  0  0
 22 51  1  0  0  0  0
 23 24  2  0  0  0  0
 23 52  1  0  0  0  0
 24 53  1  0  0  0  0
 25 26  2  3  0  0  0
 25 32  1  0  0  0  0
 26 27  1  0  0  0  0
 27 28  1  0  0  0  0
 27 54  1  0  0  0  0
 27 55  1  0  0  0  0
 28 29  1  0  0  0  0
 28 56  1  0  0  0  0
 28 57  1  0  0  0  0
 29 30  1  0  0  0  0
 29 31  1  0  0  0  0
 30 58  1  0  0  0  0
 30 59  1  0  0  0  0
 30 60  1  0  0  0  0
 31 61  1  0  0  0  0
 31 62  1  0  0  0  0
 31 63  1  0  0  0  0
 32 64  1  0  0  0  0
 32 65  1  0  0  0  0
 33 66  1  0  0  0  0
 33 67  1  0  0  0  0
M  END
$$$$
Target_lig_245
 OpenBabel04172516563D

 73 75  0  0  0  0  0  0  0  0999 V2000
   -0.4626    2.3230    5.3219 C   0  0  0  0  0  0  0  0  0  0  0  0
   -0.1388    3.6987    4.9382 N   0  0  0  0  0  0  0  0  0  0  0  0
   -1.3060    4.3413    4.3371 C   0  0  0  0  0  0  0  0  0  0  0  0
    0.3663    4.4857    6.0799 C   0  0  0  0  0  0  0  0  0  0  0  0
    1.7139    3.9852    6.6367 C   0  0  0  0  0  0  0  0  0  0  0  0
    2.7647    4.0108    5.5368 C   0  0  0  0  0  0  0  0  0  0  0  0
    4.0264    3.4111    5.9664 N   0  0  0  0  0  0  0  0  0  0  0  0
    5.1306    3.7517    5.3755 C   0  0  0  0  0  0  0  0  0  0  0  0
    5.2704    4.8070    4.3147 C   0  0  0  0  0  0  0  0  0  0  0  0
    4.4005    4.9267    3.2238 C   0  0  0  0  0  0  0  0  0  0  0  0
    4.4552    6.0516    2.3975 C   0  0  0  0  0  0  0  0  0  0  0  0
    5.3932    7.0509    2.6378 C   0  0  0  0  0  0  0  0  0  0  0  0
    6.2858    6.9296    3.7131 C   0  0  0  0  0  0  0  0  0  0  0  0
    6.2372    5.7883    4.5227 C   0  0  0  0  0  0  0  0  0  0  0  0
    7.1673    8.0136    4.0908 C   0  0  0  0  0  0  0  0  0  0  0  0
    7.7955    8.3512    5.2727 C   0  0  0  0  0  0  0  0  0  0  0  0
    8.4587    9.5667    5.0357 C   0  0  0  0  0  0  0  0  0  0  0  0
    8.2288    9.8892    3.7191 C   0  0  0  0  0  0  0  0  0  0  0  0
    7.4307    8.9470    3.1401 O   0  0  0  0  0  0  0  0  0  0  0  0
    8.6645   10.9799    2.8647 C   0  0  0  0  0  0  0  0  0  0  0  0
    8.2555   11.0742    1.5164 C   0  0  0  0  0  0  0  0  0  0  0  0
    8.7180   12.0980    0.6747 C   0  0  0  0  0  0  0  0  0  0  0  0
    9.6038   13.0229    1.2544 C   0  0  0  0  0  0  0  0  0  0  0  0
   10.0102   12.9521    2.5853 C   0  0  0  0  0  0  0  0  0  0  0  0
    9.5377   11.9336    3.3867 C   0  0  0  0  0  0  0  0  0  0  0  0
    8.2540   12.1087   -0.7863 C   0  0  0  0  0  0  0  0  0  0  0  0
    8.5994   12.9089   -1.7513 N   0  0  0  0  0  0  0  0  0  0  0  0
    9.5653   13.9573   -1.5222 C   0  0  0  0  0  0  0  0  0  0  0  0
    9.8549   14.8089   -2.7425 C   0  0  0  0  0  0  0  0  0  0  0  0
   10.9093   15.8450   -2.3062 C   0  0  0  0  0  0  0  0  0  0  0  0
   11.3208   16.7906   -3.3548 N   0  0  0  0  0  0  0  0  0  0  0  0
   10.1971   17.6140   -3.7953 C   0  0  0  0  0  0  0  0  0  0  0  0
   12.3944   17.6472   -2.8417 C   0  0  0  0  0  0  0  0  0  0  0  0
    7.3463   11.1658   -1.2113 N   0  0  0  0  0  0  0  0  0  0  0  0
    6.2653    3.1260    5.8190 N   0  0  0  0  0  0  0  0  0  0  0  0
   -0.8482    1.7632    4.4623 H   0  0  0  0  0  0  0  0  0  0  0  0
   -1.2052    2.2831    6.1261 H   0  0  0  0  0  0  0  0  0  0  0  0
    0.4332    1.7839    5.6458 H   0  0  0  0  0  0  0  0  0  0  0  0
   -1.6667    3.7605    3.4798 H   0  0  0  0  0  0  0  0  0  0  0  0
   -1.0458    5.3325    3.9496 H   0  0  0  0  0  0  0  0  0  0  0  0
   -2.1307    4.4497    5.0499 H   0  0  0  0  0  0  0  0  0  0  0  0
   -0.3743    4.5225    6.8876 H   0  0  0  0  0  0  0  0  0  0  0  0
    0.5184    5.5222    5.7464 H   0  0  0  0  0  0  0  0  0  0  0  0
    1.6201    2.9847    7.0714 H   0  0  0  0  0  0  0  0  0  0  0  0
    2.0293    4.6454    7.4544 H   0  0  0  0  0  0  0  0  0  0  0  0
    2.8772    5.0591    5.2451 H   0  0  0  0  0  0  0  0  0  0  0  0
    2.4050    3.4276    4.6834 H   0  0  0  0  0  0  0  0  0  0  0  0
    3.6347    4.1799    3.0407 H   0  0  0  0  0  0  0  0  0  0  0  0
    3.7256    6.1722    1.5971 H   0  0  0  0  0  0  0  0  0  0  0  0
    5.3945    7.9426    2.0129 H   0  0  0  0  0  0  0  0  0  0  0  0
    6.9141    5.7027    5.3670 H   0  0  0  0  0  0  0  0  0  0  0  0
    7.7468    7.7990    6.2008 H   0  0  0  0  0  0  0  0  0  0  0  0
    9.0373   10.1380    5.7472 H   0  0  0  0  0  0  0  0  0  0  0  0
    7.5877   10.3094    1.1341 H   0  0  0  0  0  0  0  0  0  0  0  0
   10.0531   13.8449    0.7262 H   0  0  0  0  0  0  0  0  0  0  0  0
   10.7092   13.6843    2.9802 H   0  0  0  0  0  0  0  0  0  0  0  0
    9.8778   11.8880    4.4177 H   0  0  0  0  0  0  0  0  0  0  0  0
   10.5143   13.5073   -1.2111 H   0  0  0  0  0  0  0  0  0  0  0  0
    9.1579   14.6474   -0.7756 H   0  0  0  0  0  0  0  0  0  0  0  0
    8.9254   15.2861   -3.0677 H   0  0  0  0  0  0  0  0  0  0  0  0
   10.2275   14.1958   -3.5693 H   0  0  0  0  0  0  0  0  0  0  0  0
   11.7967   15.2904   -1.9717 H   0  0  0  0  0  0  0  0  0  0  0  0
   10.5418   16.3937   -1.4273 H   0  0  0  0  0  0  0  0  0  0  0  0
    9.4288   17.0074   -4.2830 H   0  0  0  0  0  0  0  0  0  0  0  0
   10.5289   18.3398   -4.5476 H   0  0  0  0  0  0  0  0  0  0  0  0
    9.7344   18.1620   -2.9664 H   0  0  0  0  0  0  0  0  0  0  0  0
   13.2514   17.0450   -2.5212 H   0  0  0  0  0  0  0  0  0  0  0  0
   12.0673   18.2556   -1.9893 H   0  0  0  0  0  0  0  0  0  0  0  0
   12.7589   18.3170   -3.6212 H   0  0  0  0  0  0  0  0  0  0  0  0
    6.6041   10.9048   -0.5765 H   0  0  0  0  0  0  0  0  0  0  0  0
    6.9967   11.4030   -2.1343 H   0  0  0  0  0  0  0  0  0  0  0  0
    6.1448    2.6362    6.6982 H   0  0  0  0  0  0  0  0  0  0  0  0
    7.1779    3.5261    5.6561 H   0  0  0  0  0  0  0  0  0  0  0  0
  1  2  1  0  0  0  0
  1 36  1  0  0  0  0
  1 37  1  0  0  0  0
  1 38  1  0  0  0  0
  2  3  1  0  0  0  0
  2  4  1  0  0  0  0
  3 39  1  0  0  0  0
  3 40  1  0  0  0  0
  3 41  1  0  0  0  0
  4  5  1  0  0  0  0
  4 42  1  0  0  0  0
  4 43  1  0  0  0  0
  5  6  1  0  0  0  0
  5 44  1  0  0  0  0
  5 45  1  0  0  0  0
  6  7  1  0  0  0  0
  6 46  1  0  0  0  0
  6 47  1  0  0  0  0
  7  8  2  3  0  0  0
  8  9  1  0  0  0  0
  8 35  1  0  0  0  0
  9 10  2  0  0  0  0
  9 14  1  0  0  0  0
 10 11  1  0  0  0  0
 10 48  1  0  0  0  0
 11 12  2  0  0  0  0
 11 49  1  0  0  0  0
 12 13  1  0  0  0  0
 12 50  1  0  0  0  0
 13 14  2  0  0  0  0
 13 15  1  0  0  0  0
 14 51  1  0  0  0  0
 15 16  2  0  0  0  0
 15 19  1  0  0  0  0
 16 17  1  0  0  0  0
 16 52  1  0  0  0  0
 17 18  2  0  0  0  0
 17 53  1  0  0  0  0
 18 19  1  0  0  0  0
 18 20  1  0  0  0  0
 20 21  2  0  0  0  0
 20 25  1  0  0  0  0
 21 22  1  0  0  0  0
 21 54  1  0  0  0  0
 22 23  2  0  0  0  0
 22 26  1  0  0  0  0
 23 24  1  0  0  0  0
 23 55  1  0  0  0  0
 24 25  2  0  0  0  0
 24 56  1  0  0  0  0
 25 57  1  0  0  0  0
 26 27  2  3  0  0  0
 26 34  1  0  0  0  0
 27 28  1  0  0  0  0
 28 29  1  0  0  0  0
 28 58  1  0  0  0  0
 28 59  1  0  0  0  0
 29 30  1  0  0  0  0
 29 60  1  0  0  0  0
 29 61  1  0  0  0  0
 30 31  1  0  0  0  0
 30 62  1  0  0  0  0
 30 63  1  0  0  0  0
 31 32  1  0  0  0  0
 31 33  1  0  0  0  0
 32 64  1  0  0  0  0
 32 65  1  0  0  0  0
 32 66  1  0  0  0  0
 33 67  1  0  0  0  0
 33 68  1  0  0  0  0
 33 69  1  0  0  0  0
 34 70  1  0  0  0  0
 34 71  1  0  0  0  0
 35 72  1  0  0  0  0
 35 73  1  0  0  0  0
M  END
$$$$
Target_lig_474
 OpenBabel04172516563D

 37 38  0  0  1  0  0  0  0  0999 V2000
    1.7878    0.9729    4.3791 C   0  0  0  0  0  0  0  0  0  0  0  0
    1.8883    1.5761    5.4493 O   0  0  0  0  0  0  0  0  0  0  0  0
    2.4665   -0.2331    4.1363 N   0  0  0  0  0  0  0  0  0  0  0  0
    1.9543   -1.2684    3.3408 C   0  0  0  0  0  0  0  0  0  0  0  0
    2.3864   -2.4208    3.3672 O   0  0  0  0  0  0  0  0  0  0  0  0
    0.8914   -0.8513    2.4743 C   0  0  0  0  0  0  0  0  0  0  0  0
    0.4578    0.4464    2.3631 C   0  0  0  0  0  0  0  0  0  0  0  0
    0.9922    1.5550    3.1896 C   0  0  1  0  0  0  0  0  0  0  0  0
   -0.0820    2.5394    3.6379 C   0  0  0  0  0  0  0  0  0  0  0  0
   -0.4273    0.5858    1.3293 N   0  0  0  0  0  0  0  0  0  0  0  0
   -0.5909   -0.6339    0.8629 C   0  0  0  0  0  0  0  0  0  0  0  0
    0.1051   -1.5553    1.5996 N   0  0  0  0  0  0  0  0  0  0  0  0
    0.0407   -2.9986    1.4258 C   0  0  0  0  0  0  0  0  0  0  0  0
   -0.7492   -3.7283    2.5519 C   0  0  2  0  0  0  0  0  0  0  0  0
   -0.1164   -3.4734    3.8007 O   0  0  0  0  0  0  0  0  0  0  0  0
   -0.8315   -5.1881    2.3650 N   0  0  0  0  0  0  0  0  0  0  0  0
   -1.4884   -5.8234    3.5194 C   0  0  0  0  0  0  0  0  0  0  0  0
   -1.5750   -5.5477    1.1535 C   0  0  0  0  0  0  0  0  0  0  0  0
    3.5998   -0.5608    4.9751 C   0  0  0  0  0  0  0  0  0  0  0  0
    1.7305    2.1050    2.5920 H   0  0  0  0  0  0  0  0  0  0  0  0
   -0.8956    2.0354    4.1707 H   0  0  0  0  0  0  0  0  0  0  0  0
   -0.5176    3.0526    2.7730 H   0  0  0  0  0  0  0  0  0  0  0  0
    0.3301    3.3055    4.3027 H   0  0  0  0  0  0  0  0  0  0  0  0
   -1.1939   -0.9002    0.0039 H   0  0  0  0  0  0  0  0  0  0  0  0
    1.0692   -3.3614    1.3536 H   0  0  0  0  0  0  0  0  0  0  0  0
   -0.4387   -3.1645    0.4516 H   0  0  0  0  0  0  0  0  0  0  0  0
   -1.7561   -3.2964    2.6226 H   0  0  0  0  0  0  0  0  0  0  0  0
    0.7922   -3.8224    3.7140 H   0  0  0  0  0  0  0  0  0  0  0  0
   -0.9137   -5.6785    4.4400 H   0  0  0  0  0  0  0  0  0  0  0  0
   -1.5494   -6.9081    3.3735 H   0  0  0  0  0  0  0  0  0  0  0  0
   -2.5040   -5.4419    3.6781 H   0  0  0  0  0  0  0  0  0  0  0  0
   -1.0508   -5.2308    0.2484 H   0  0  0  0  0  0  0  0  0  0  0  0
   -2.5841   -5.1197    1.1447 H   0  0  0  0  0  0  0  0  0  0  0  0
   -1.6681   -6.6376    1.0656 H   0  0  0  0  0  0  0  0  0  0  0  0
    3.9603    0.3117    5.5267 H   0  0  0  0  0  0  0  0  0  0  0  0
    4.4085   -0.9149    4.3253 H   0  0  0  0  0  0  0  0  0  0  0  0
    3.3353   -1.3614    5.6710 H   0  0  0  0  0  0  0  0  0  0  0  0
  1  2  2  0  0  0  0
  1  3  1  0  0  0  0
  1  8  1  0  0  0  0
  3  4  1  0  0  0  0
  3 19  1  0  0  0  0
  4  5  2  0  0  0  0
  4  6  1  0  0  0  0
  6  7  2  0  0  0  0
  6 12  1  0  0  0  0
  7  8  1  0  0  0  0
  7 10  1  0  0  0  0
  8  9  1  0  0  0  0
  8 20  1  6  0  0  0
  9 21  1  0  0  0  0
  9 22  1  0  0  0  0
  9 23  1  0  0  0  0
 10 11  2  0  0  0  0
 11 12  1  0  0  0  0
 11 24  1  0  0  0  0
 12 13  1  0  0  0  0
 13 25  1  0  0  0  0
 13 26  1  0  0  0  0
 14 16  1  0  0  0  0
 14 15  1  0  0  0  0
 14 13  1  0  0  0  0
 14 27  1  1  0  0  0
 15 28  1  0  0  0  0
 16 17  1  0  0  0  0
 16 18  1  0  0  0  0
 17 29  1  0  0  0  0
 17 30  1  0  0  0  0
 17 31  1  0  0  0  0
 18 32  1  0  0  0  0
 18 33  1  0  0  0  0
 18 34  1  0  0  0  0
 19 35  1  0  0  0  0
 19 36  1  0  0  0  0
 19 37  1  0  0  0  0
M  END
$$$$
Target_lig_475
 OpenBabel04172516563D

 49 52  0  0  0  0  0  0  0  0999 V2000
    1.9761   -2.2748   -0.9228 C   0  0  0  0  0  0  0  0  0  0  0  0
    0.5332   -2.2324   -1.1374 N   0  0  0  0  0  0  0  0  0  0  0  0
   -0.1224   -3.4526   -0.6329 C   0  0  0  0  0  0  0  0  0  0  0  0
   -1.6647   -3.3929   -0.7916 C   0  0  0  0  0  0  0  0  0  0  0  0
   -2.3111   -2.1974   -0.1887 N   0  0  0  0  0  0  0  0  0  0  0  0
   -1.6001   -1.0031   -0.6930 C   0  0  0  0  0  0  0  0  0  0  0  0
   -0.0642   -1.0362   -0.5181 C   0  0  0  0  0  0  0  0  0  0  0  0
   -2.3066   -2.3151    1.2786 C   0  0  0  0  0  0  0  0  0  0  0  0
   -3.0682   -1.2138    2.0277 C   0  0  0  0  0  0  0  0  0  0  0  0
   -2.9867   -1.3543    3.5604 C   0  0  0  0  0  0  0  0  0  0  0  0
   -3.6806   -2.5583    4.0831 N   0  0  0  0  0  0  0  0  0  0  0  0
   -5.0874   -2.4305    4.3235 C   0  0  0  0  0  0  0  0  0  0  0  0
   -5.8050   -1.2404    4.0479 C   0  0  0  0  0  0  0  0  0  0  0  0
   -7.1656   -1.0833    4.3464 C   0  0  0  0  0  0  0  0  0  0  0  0
   -7.8714   -2.1224    4.9235 C   0  0  0  0  0  0  0  0  0  0  0  0
   -7.2167   -3.3216    5.1703 C   0  0  0  0  0  0  0  0  0  0  0  0
   -5.8480   -3.4855    4.8675 C   0  0  0  0  0  0  0  0  0  0  0  0
   -5.2027   -5.1011    5.2083 S   0  0  0  0  0  0  0  0  0  0  0  0
   -3.4958   -4.9409    4.7555 C   0  0  0  0  0  0  0  0  0  0  0  0
   -2.9070   -3.7392    4.3065 C   0  0  0  0  0  0  0  0  0  0  0  0
   -1.5137   -3.8009    4.0659 C   0  0  0  0  0  0  0  0  0  0  0  0
   -0.7737   -4.9815    4.1854 C   0  0  0  0  0  0  0  0  0  0  0  0
   -1.3806   -6.1530    4.5927 C   0  0  0  0  0  0  0  0  0  0  0  0
   -2.7387   -6.1254    4.8917 C   0  0  0  0  0  0  0  0  0  0  0  0
    0.9029   -4.9790    3.7943 Cl  0  0  0  0  0  0  0  0  0  0  0  0
    2.4134   -3.1430   -1.4265 H   0  0  0  0  0  0  0  0  0  0  0  0
    2.2378   -2.3229    0.1397 H   0  0  0  0  0  0  0  0  0  0  0  0
    2.4515   -1.3881   -1.3554 H   0  0  0  0  0  0  0  0  0  0  0  0
    0.1328   -3.6209    0.4205 H   0  0  0  0  0  0  0  0  0  0  0  0
    0.2453   -4.3202   -1.1930 H   0  0  0  0  0  0  0  0  0  0  0  0
   -2.1093   -4.3102   -0.3852 H   0  0  0  0  0  0  0  0  0  0  0  0
   -1.9062   -3.4039   -1.8638 H   0  0  0  0  0  0  0  0  0  0  0  0
   -2.0027   -0.0879   -0.2468 H   0  0  0  0  0  0  0  0  0  0  0  0
   -1.8240   -0.9108   -1.7652 H   0  0  0  0  0  0  0  0  0  0  0  0
    0.1883   -0.9829    0.5483 H   0  0  0  0  0  0  0  0  0  0  0  0
    0.3518   -0.1378   -0.9913 H   0  0  0  0  0  0  0  0  0  0  0  0
   -1.2799   -2.3525    1.6538 H   0  0  0  0  0  0  0  0  0  0  0  0
   -2.7855   -3.2689    1.5273 H   0  0  0  0  0  0  0  0  0  0  0  0
   -4.1106   -1.2015    1.6914 H   0  0  0  0  0  0  0  0  0  0  0  0
   -2.6438   -0.2346    1.7817 H   0  0  0  0  0  0  0  0  0  0  0  0
   -3.3866   -0.4466    4.0276 H   0  0  0  0  0  0  0  0  0  0  0  0
   -1.9435   -1.2937    3.8835 H   0  0  0  0  0  0  0  0  0  0  0  0
   -5.3380   -0.3801    3.5812 H   0  0  0  0  0  0  0  0  0  0  0  0
   -7.6639   -0.1426    4.1249 H   0  0  0  0  0  0  0  0  0  0  0  0
   -8.9234   -2.0089    5.1687 H   0  0  0  0  0  0  0  0  0  0  0  0
   -7.7839   -4.1426    5.6055 H   0  0  0  0  0  0  0  0  0  0  0  0
   -0.9466   -2.9335    3.7554 H   0  0  0  0  0  0  0  0  0  0  0  0
   -0.8186   -7.0759    4.6865 H   0  0  0  0  0  0  0  0  0  0  0  0
   -3.2143   -7.0447    5.2279 H   0  0  0  0  0  0  0  0  0  0  0  0
  1  2  1  0  0  0  0
  1 26  1  0  0  0  0
  1 27  1  0  0  0  0
  1 28  1  0  0  0  0
  2  3  1  0  0  0  0
  2  7  1  0  0  0  0
  3  4  1  0  0  0  0
  3 29  1  0  0  0  0
  3 30  1  0  0  0  0
  4  5  1  0  0  0  0
  4 31  1  0  0  0  0
  4 32  1  0  0  0  0
  5  6  1  0  0  0  0
  5  8  1  0  0  0  0
  6  7  1  0  0  0  0
  6 33  1  0  0  0  0
  6 34  1  0  0  0  0
  7 35  1  0  0  0  0
  7 36  1  0  0  0  0
  8  9  1  0  0  0  0
  8 37  1  0  0  0  0
  8 38  1  0  0  0  0
  9 10  1  0  0  0  0
  9 39  1  0  0  0  0
  9 40  1  0  0  0  0
 10 11  1  0  0  0  0
 10 41  1  0  0  0  0
 10 42  1  0  0  0  0
 11 12  1  0  0  0  0
 11 20  1  0  0  0  0
 12 13  2  0  0  0  0
 12 17  1  0  0  0  0
 13 14  1  0  0  0  0
 13 43  1  0  0  0  0
 14 15  2  0  0  0  0
 14 44  1  0  0  0  0
 15 16  1  0  0  0  0
 15 45  1  0  0  0  0
 16 17  2  0  0  0  0
 16 46  1  0  0  0  0
 17 18  1  0  0  0  0
 18 19  1  0  0  0  0
 19 20  2  0  0  0  0
 19 24  1  0  0  0  0
 20 21  1  0  0  0  0
 21 22  2  0  0  0  0
 21 47  1  0  0  0  0
 22 23  1  0  0  0  0
 22 25  1  0  0  0  0
 23 24  2  0  0  0  0
 23 48  1  0  0  0  0
 24 49  1  0  0  0  0
M  END
$$$$
Target_lig_476
 OpenBabel04172516563D

 39 43  0  0  0  0  0  0  0  0999 V2000
    0.0048    2.8945   -2.6204 C   0  0  0  0  0  0  0  0  0  0  0  0
    0.0471    1.6347   -2.0069 C   0  0  0  0  0  0  0  0  0  0  0  0
   -0.0228    1.5735   -0.6260 C   0  0  0  0  0  0  0  0  0  0  0  0
   -0.1195    2.7320    0.1140 C   0  0  0  0  0  0  0  0  0  0  0  0
   -0.1728    3.9900   -0.4682 C   0  0  0  0  0  0  0  0  0  0  0  0
   -0.1233    4.0870   -1.8649 C   0  0  0  0  0  0  0  0  0  0  0  0
   -0.1380    5.3868   -2.4101 N   0  0  0  0  0  0  0  0  0  0  0  0
   -0.6350    5.5190   -3.4658 C   0  0  0  0  0  0  0  0  0  0  0  0
   -1.2788    5.7622   -4.9038 S   0  0  0  0  0  0  0  0  0  0  0  0
   -0.1514    2.3897    1.5260 C   0  0  0  0  0  0  0  0  0  0  0  0
   -0.2390    3.1689    2.4520 O   0  0  0  0  0  0  0  0  0  0  0  0
   -0.0661    1.0292    1.6092 O   0  0  0  0  0  0  0  0  0  0  0  0
   -0.0081    0.3947    0.3009 C   0  0  0  0  0  0  0  0  0  0  0  0
    1.2848   -0.3933    0.2145 C   0  0  0  0  0  0  0  0  0  0  0  0
    1.2504   -1.7629   -0.0637 C   0  0  0  0  0  0  0  0  0  0  0  0
    2.4333   -2.5006   -0.1971 C   0  0  0  0  0  0  0  0  0  0  0  0
    3.6597   -1.8649   -0.0504 C   0  0  0  0  0  0  0  0  0  0  0  0
    3.7223   -0.5102    0.2405 C   0  0  0  0  0  0  0  0  0  0  0  0
    2.5423    0.2224    0.3788 C   0  0  0  0  0  0  0  0  0  0  0  0
    4.8360   -2.5393   -0.1867 O   0  0  0  0  0  0  0  0  0  0  0  0
    0.0925   -2.4794   -0.2317 O   0  0  0  0  0  0  0  0  0  0  0  0
   -1.1133   -1.8406   -0.0935 C   0  0  0  0  0  0  0  0  0  0  0  0
   -1.2461   -0.4719    0.1555 C   0  0  0  0  0  0  0  0  0  0  0  0
   -2.5478    0.0638    0.2602 C   0  0  0  0  0  0  0  0  0  0  0  0
   -3.6763   -0.7473    0.1189 C   0  0  0  0  0  0  0  0  0  0  0  0
   -3.5120   -2.1047   -0.1183 C   0  0  0  0  0  0  0  0  0  0  0  0
   -2.2422   -2.6555   -0.2266 C   0  0  0  0  0  0  0  0  0  0  0  0
   -4.5828   -2.9371   -0.2514 O   0  0  0  0  0  0  0  0  0  0  0  0
    0.0802    2.9287   -3.7056 H   0  0  0  0  0  0  0  0  0  0  0  0
    0.1392    0.7312   -2.6045 H   0  0  0  0  0  0  0  0  0  0  0  0
   -0.2489    4.8795    0.1511 H   0  0  0  0  0  0  0  0  0  0  0  0
    2.3756   -3.5624   -0.4161 H   0  0  0  0  0  0  0  0  0  0  0  0
    4.6868   -0.0233    0.3583 H   0  0  0  0  0  0  0  0  0  0  0  0
    2.6177    1.2832    0.6082 H   0  0  0  0  0  0  0  0  0  0  0  0
    4.6441   -3.4716   -0.3809 H   0  0  0  0  0  0  0  0  0  0  0  0
   -2.6976    1.1238    0.4550 H   0  0  0  0  0  0  0  0  0  0  0  0
   -4.6640   -0.3037    0.2005 H   0  0  0  0  0  0  0  0  0  0  0  0
   -2.1303   -3.7205   -0.4105 H   0  0  0  0  0  0  0  0  0  0  0  0
   -5.3970   -2.4268   -0.1079 H   0  0  0  0  0  0  0  0  0  0  0  0
  1  2  2  0  0  0  0
  1  6  1  0  0  0  0
  1 29  1  0  0  0  0
  2  3  1  0  0  0  0
  2 30  1  0  0  0  0
  3  4  2  0  0  0  0
  3 13  1  0  0  0  0
  4  5  1  0  0  0  0
  4 10  1  0  0  0  0
  5  6  2  0  0  0  0
  5 31  1  0  0  0  0
  6  7  1  0  0  0  0
  7  8  2  0  0  0  0
  8  9  2  0  0  0  0
 10 11  2  0  0  0  0
 10 12  1  0  0  0  0
 12 13  1  0  0  0  0
 13 14  1  0  0  0  0
 13 23  1  0  0  0  0
 14 15  2  0  0  0  0
 14 19  1  0  0  0  0
 15 16  1  0  0  0  0
 15 21  1  0  0  0  0
 16 17  2  0  0  0  0
 16 32  1  0  0  0  0
 17 18  1  0  0  0  0
 17 20  1  0  0  0  0
 18 19  2  0  0  0  0
 18 33  1  0  0  0  0
 19 34  1  0  0  0  0
 20 35  1  0  0  0  0
 21 22  1  0  0  0  0
 22 23  2  0  0  0  0
 22 27  1  0  0  0  0
 23 24  1  0  0  0  0
 24 25  2  0  0  0  0
 24 36  1  0  0  0  0
 25 26  1  0  0  0  0
 25 37  1  0  0  0  0
 26 27  2  0  0  0  0
 26 28  1  0  0  0  0
 27 38  1  0  0  0  0
 28 39  1  0  0  0  0
M  END
$$$$
Target_lig_477
 OpenBabel04172516563D

 38 41  0  0  0  0  0  0  0  0999 V2000
   -2.1972    1.2338    0.0460 C   0  0  0  0  0  0  0  0  0  0  0  0
   -2.6847   -0.0791    0.1407 C   0  0  0  0  0  0  0  0  0  0  0  0
   -1.8043   -1.1628    0.1709 C   0  0  0  0  0  0  0  0  0  0  0  0
   -0.4401   -0.9154    0.0657 C   0  0  0  0  0  0  0  0  0  0  0  0
    0.0232    0.3804   -0.0082 C   0  0  0  0  0  0  0  0  0  0  0  0
   -0.8232    1.4762   -0.0154 C   0  0  0  0  0  0  0  0  0  0  0  0
    1.4760    0.3627   -0.0656 C   0  0  0  0  0  0  0  0  0  0  0  0
    2.2112    1.3272   -0.0921 O   0  0  0  0  0  0  0  0  0  0  0  0
    1.8543   -0.9525   -0.0376 O   0  0  0  0  0  0  0  0  0  0  0  0
    0.7164   -1.8676   -0.0226 C   0  0  0  0  0  0  0  0  0  0  0  0
    0.8035   -2.6640   -1.3431 C   0  0  0  0  0  0  0  0  0  0  0  0
    1.9426   -3.4532   -1.6095 C   0  0  0  0  0  0  0  0  0  0  0  0
    1.9751   -4.3319   -2.6984 C   0  0  0  0  0  0  0  0  0  0  0  0
    0.8793   -4.4095   -3.5495 C   0  0  0  0  0  0  0  0  0  0  0  0
   -0.2186   -3.5866   -3.3626 C   0  0  0  0  0  0  0  0  0  0  0  0
   -0.2517   -2.7121   -2.2748 C   0  0  0  0  0  0  0  0  0  0  0  0
    0.8335   -5.2956   -4.5824 O   0  0  0  0  0  0  0  0  0  0  0  0
    0.7926   -2.7600    1.2361 C   0  0  0  0  0  0  0  0  0  0  0  0
    1.3465   -2.2772    2.4392 C   0  0  0  0  0  0  0  0  0  0  0  0
    1.3825   -3.0709    3.5923 C   0  0  0  0  0  0  0  0  0  0  0  0
    0.8691   -4.3611    3.5542 C   0  0  0  0  0  0  0  0  0  0  0  0
    0.3108   -4.8643    2.3887 C   0  0  0  0  0  0  0  0  0  0  0  0
    0.2573   -4.0655    1.2432 C   0  0  0  0  0  0  0  0  0  0  0  0
    0.8881   -5.1709    4.6503 O   0  0  0  0  0  0  0  0  0  0  0  0
   -2.8972    2.0667    0.0195 H   0  0  0  0  0  0  0  0  0  0  0  0
   -3.7574   -0.2548    0.1811 H   0  0  0  0  0  0  0  0  0  0  0  0
   -2.1874   -2.1788    0.2345 H   0  0  0  0  0  0  0  0  0  0  0  0
   -0.4287    2.4870   -0.0766 H   0  0  0  0  0  0  0  0  0  0  0  0
    2.8005   -3.4147   -0.9388 H   0  0  0  0  0  0  0  0  0  0  0  0
    2.8496   -4.9569   -2.8499 H   0  0  0  0  0  0  0  0  0  0  0  0
   -1.0614   -3.6371   -4.0458 H   0  0  0  0  0  0  0  0  0  0  0  0
   -1.1380   -2.0941   -2.1729 H   0  0  0  0  0  0  0  0  0  0  0  0
    1.6317   -5.8476   -4.5538 H   0  0  0  0  0  0  0  0  0  0  0  0
    1.7565   -1.2703    2.4945 H   0  0  0  0  0  0  0  0  0  0  0  0
    1.8129   -2.6643    4.5025 H   0  0  0  0  0  0  0  0  0  0  0  0
   -0.0858   -5.8759    2.3698 H   0  0  0  0  0  0  0  0  0  0  0  0
   -0.2028   -4.4871    0.3512 H   0  0  0  0  0  0  0  0  0  0  0  0
    1.2869   -4.6843    5.3901 H   0  0  0  0  0  0  0  0  0  0  0  0
  1  2  2  0  0  0  0
  1  6  1  0  0  0  0
  1 25  1  0  0  0  0
  2  3  1  0  0  0  0
  2 26  1  0  0  0  0
  3  4  2  0  0  0  0
  3 27  1  0  0  0  0
  4  5  1  0  0  0  0
  4 10  1  0  0  0  0
  5  6  2  0  0  0  0
  5  7  1  0  0  0  0
  6 28  1  0  0  0  0
  7  8  2  0  0  0  0
  7  9  1  0  0  0  0
  9 10  1  0  0  0  0
 10 11  1  0  0  0  0
 10 18  1  0  0  0  0
 11 12  2  0  0  0  0
 11 16  1  0  0  0  0
 12 13  1  0  0  0  0
 12 29  1  0  0  0  0
 13 14  2  0  0  0  0
 13 30  1  0  0  0  0
 14 15  1  0  0  0  0
 14 17  1  0  0  0  0
 15 16  2  0  0  0  0
 15 31  1  0  0  0  0
 16 32  1  0  0  0  0
 17 33  1  0  0  0  0
 18 19  2  0  0  0  0
 18 23  1  0  0  0  0
 19 20  1  0  0  0  0
 19 34  1  0  0  0  0
 20 21  2  0  0  0  0
 20 35  1  0  0  0  0
 21 22  1  0  0  0  0
 21 24  1  0  0  0  0
 22 23  2  0  0  0  0
 22 36  1  0  0  0  0
 23 37  1  0  0  0  0
 24 38  1  0  0  0  0
M  END
$$$$
Target_lig_478
 OpenBabel04172516563D

 45 47  0  0  0  0  0  0  0  0999 V2000
    1.0865    0.5486    0.5009 C   0  0  0  0  0  0  0  0  0  0  0  0
    2.4061    0.0197   -0.0005 C   0  0  0  0  0  0  0  0  0  0  0  0
    2.8541   -1.0495    0.4066 O   0  0  0  0  0  0  0  0  0  0  0  0
    3.1646    0.8135   -1.0089 C   0  0  0  0  0  0  0  0  0  0  0  0
    4.3752    0.2907   -1.5013 C   0  0  0  0  0  0  0  0  0  0  0  0
    5.1584    0.9926   -2.4289 C   0  0  0  0  0  0  0  0  0  0  0  0
    4.7160    2.2732   -2.8297 C   0  0  0  0  0  0  0  0  0  0  0  0
    3.4985    2.7852   -2.3633 C   0  0  0  0  0  0  0  0  0  0  0  0
    2.7218    2.0587   -1.4631 C   0  0  0  0  0  0  0  0  0  0  0  0
    5.7019    3.2952   -3.9173 S   0  0  0  0  0  0  0  0  0  0  0  0
    7.3303    2.6487   -3.5556 C   0  0  0  0  0  0  0  0  0  0  0  0
    8.4330    3.5019   -3.6931 C   0  0  0  0  0  0  0  0  0  0  0  0
    9.7185    3.0464   -3.4024 C   0  0  0  0  0  0  0  0  0  0  0  0
    9.9104    1.7292   -2.9949 C   0  0  0  0  0  0  0  0  0  0  0  0
    8.8173    0.8725   -2.8729 C   0  0  0  0  0  0  0  0  0  0  0  0
    7.5122    1.3125   -3.1421 C   0  0  0  0  0  0  0  0  0  0  0  0
    6.4075    0.4786   -2.8502 N   0  0  0  0  0  0  0  0  0  0  0  0
    6.4094   -0.8705   -3.4696 C   0  0  0  0  0  0  0  0  0  0  0  0
    5.7513   -0.8747   -4.8616 C   0  0  0  0  0  0  0  0  0  0  0  0
    5.7615   -2.2716   -5.5087 C   0  0  0  0  0  0  0  0  0  0  0  0
    5.0815   -3.3098   -4.7158 N   0  0  0  0  0  0  0  0  0  0  0  0
    3.6646   -3.0027   -4.5056 C   0  0  0  0  0  0  0  0  0  0  0  0
    5.2102   -4.6242   -5.3516 C   0  0  0  0  0  0  0  0  0  0  0  0
    0.6609   -0.1666    1.2120 H   0  0  0  0  0  0  0  0  0  0  0  0
    0.3840    0.6567   -0.3297 H   0  0  0  0  0  0  0  0  0  0  0  0
    1.2267    1.4998    1.0210 H   0  0  0  0  0  0  0  0  0  0  0  0
    4.7486   -0.6522   -1.0948 H   0  0  0  0  0  0  0  0  0  0  0  0
    3.1593    3.7655   -2.6904 H   0  0  0  0  0  0  0  0  0  0  0  0
    1.7910    2.4973   -1.1121 H   0  0  0  0  0  0  0  0  0  0  0  0
    8.2928    4.5345   -4.0026 H   0  0  0  0  0  0  0  0  0  0  0  0
   10.5652    3.7223   -3.4762 H   0  0  0  0  0  0  0  0  0  0  0  0
   10.9067    1.3752   -2.7429 H   0  0  0  0  0  0  0  0  0  0  0  0
    8.9870   -0.1312   -2.4874 H   0  0  0  0  0  0  0  0  0  0  0  0
    5.9123   -1.5853   -2.8072 H   0  0  0  0  0  0  0  0  0  0  0  0
    7.4315   -1.2516   -3.5831 H   0  0  0  0  0  0  0  0  0  0  0  0
    6.2841   -0.1816   -5.5251 H   0  0  0  0  0  0  0  0  0  0  0  0
    4.7246   -0.4961   -4.8064 H   0  0  0  0  0  0  0  0  0  0  0  0
    6.8109   -2.5653   -5.6545 H   0  0  0  0  0  0  0  0  0  0  0  0
    5.3186   -2.2038   -6.5127 H   0  0  0  0  0  0  0  0  0  0  0  0
    3.5432   -2.1069   -3.8891 H   0  0  0  0  0  0  0  0  0  0  0  0
    3.1720   -3.8101   -3.9526 H   0  0  0  0  0  0  0  0  0  0  0  0
    3.1300   -2.8534   -5.4504 H   0  0  0  0  0  0  0  0  0  0  0  0
    6.2634   -4.9057   -5.4586 H   0  0  0  0  0  0  0  0  0  0  0  0
    4.7385   -4.6579   -6.3406 H   0  0  0  0  0  0  0  0  0  0  0  0
    4.7464   -5.3965   -4.7260 H   0  0  0  0  0  0  0  0  0  0  0  0
  1  2  1  0  0  0  0
  1 24  1  0  0  0  0
  1 25  1  0  0  0  0
  1 26  1  0  0  0  0
  2  3  2  0  0  0  0
  2  4  1  0  0  0  0
  4  5  2  0  0  0  0
  4  9  1  0  0  0  0
  5  6  1  0  0  0  0
  5 27  1  0  0  0  0
  6  7  2  0  0  0  0
  6 17  1  0  0  0  0
  7  8  1  0  0  0  0
  7 10  1  0  0  0  0
  8  9  2  0  0  0  0
  8 28  1  0  0  0  0
  9 29  1  0  0  0  0
 10 11  1  0  0  0  0
 11 12  2  0  0  0  0
 11 16  1  0  0  0  0
 12 13  1  0  0  0  0
 12 30  1  0  0  0  0
 13 14  2  0  0  0  0
 13 31  1  0  0  0  0
 14 15  1  0  0  0  0
 14 32  1  0  0  0  0
 15 16  2  0  0  0  0
 15 33  1  0  0  0  0
 16 17  1  0  0  0  0
 17 18  1  0  0  0  0
 18 19  1  0  0  0  0
 18 34  1  0  0  0  0
 18 35  1  0  0  0  0
 19 20  1  0  0  0  0
 19 36  1  0  0  0  0
 19 37  1  0  0  0  0
 20 21  1  0  0  0  0
 20 38  1  0  0  0  0
 20 39  1  0  0  0  0
 21 22  1  0  0  0  0
 21 23  1  0  0  0  0
 22 40  1  0  0  0  0
 22 41  1  0  0  0  0
 22 42  1  0  0  0  0
 23 43  1  0  0  0  0
 23 44  1  0  0  0  0
 23 45  1  0  0  0  0
M  END
$$$$
Target_lig_479
 OpenBabel04172516563D

 36 40  0  0  0  0  0  0  0  0999 V2000
   -6.1727    0.3267    0.1498 C   0  0  0  0  0  0  0  0  0  0  0  0
   -6.0638   -1.0637    0.1030 C   0  0  0  0  0  0  0  0  0  0  0  0
   -4.8098   -1.6702   -0.0165 C   0  0  0  0  0  0  0  0  0  0  0  0
   -3.6522   -0.8905   -0.0909 C   0  0  0  0  0  0  0  0  0  0  0  0
   -3.7730    0.5069   -0.0217 C   0  0  0  0  0  0  0  0  0  0  0  0
   -5.0266    1.1172    0.0826 C   0  0  0  0  0  0  0  0  0  0  0  0
   -2.5399    1.3317   -0.0419 C   0  0  0  0  0  0  0  0  0  0  0  0
   -2.6018    2.5580   -0.0613 O   0  0  0  0  0  0  0  0  0  0  0  0
   -1.2234    0.6471   -0.0260 C   0  0  0  0  0  0  0  0  0  0  0  0
   -0.0457    1.3997    0.0586 C   0  0  0  0  0  0  0  0  0  0  0  0
    1.1899    0.7526    0.0982 C   0  0  0  0  0  0  0  0  0  0  0  0
    1.2225   -0.6502    0.0222 C   0  0  0  0  0  0  0  0  0  0  0  0
    0.0443   -1.4029   -0.0610 C   0  0  0  0  0  0  0  0  0  0  0  0
   -1.1909   -0.7559   -0.1012 C   0  0  0  0  0  0  0  0  0  0  0  0
   -2.3842   -1.4903   -0.1104 N   0  0  0  0  0  0  0  0  0  0  0  0
    2.5388   -1.3353    0.0364 C   0  0  0  0  0  0  0  0  0  0  0  0
    2.6015   -2.5606    0.0511 O   0  0  0  0  0  0  0  0  0  0  0  0
    3.7724   -0.5093    0.0181 C   0  0  0  0  0  0  0  0  0  0  0  0
    5.0262   -1.1198   -0.0838 C   0  0  0  0  0  0  0  0  0  0  0  0
    6.1724   -0.3288   -0.1459 C   0  0  0  0  0  0  0  0  0  0  0  0
    6.0623    1.0610   -0.0988 C   0  0  0  0  0  0  0  0  0  0  0  0
    4.8090    1.6686    0.0178 C   0  0  0  0  0  0  0  0  0  0  0  0
    3.6505    0.8872    0.0881 C   0  0  0  0  0  0  0  0  0  0  0  0
    2.3837    1.4872    0.1061 N   0  0  0  0  0  0  0  0  0  0  0  0
   -7.1488    0.7946    0.2517 H   0  0  0  0  0  0  0  0  0  0  0  0
   -6.9579   -1.6788    0.1735 H   0  0  0  0  0  0  0  0  0  0  0  0
   -4.7458   -2.7549   -0.0313 H   0  0  0  0  0  0  0  0  0  0  0  0
   -5.1071    2.2007    0.1306 H   0  0  0  0  0  0  0  0  0  0  0  0
   -0.1032    2.4849    0.0915 H   0  0  0  0  0  0  0  0  0  0  0  0
    0.1020   -2.4881   -0.0949 H   0  0  0  0  0  0  0  0  0  0  0  0
   -2.3329   -2.4640   -0.3845 H   0  0  0  0  0  0  0  0  0  0  0  0
    5.1074   -2.2031   -0.1325 H   0  0  0  0  0  0  0  0  0  0  0  0
    7.1490   -0.7962   -0.2458 H   0  0  0  0  0  0  0  0  0  0  0  0
    6.9574    1.6771   -0.1648 H   0  0  0  0  0  0  0  0  0  0  0  0
    4.7445    2.7521    0.0340 H   0  0  0  0  0  0  0  0  0  0  0  0
    2.3315    2.4607    0.3817 H   0  0  0  0  0  0  0  0  0  0  0  0
  1  2  2  0  0  0  0
  1  6  1  0  0  0  0
  1 25  1  0  0  0  0
  2  3  1  0  0  0  0
  2 26  1  0  0  0  0
  3  4  2  0  0  0  0
  3 27  1  0  0  0  0
  4  5  1  0  0  0  0
  4 15  1  0  0  0  0
  5  6  2  0  0  0  0
  5  7  1  0  0  0  0
  6 28  1  0  0  0  0
  7  8  2  0  0  0  0
  7  9  1  0  0  0  0
  9 10  2  0  0  0  0
  9 14  1  0  0  0  0
 10 11  1  0  0  0  0
 10 29  1  0  0  0  0
 11 12  2  0  0  0  0
 11 24  1  0  0  0  0
 12 13  1  0  0  0  0
 12 16  1  0  0  0  0
 13 14  2  0  0  0  0
 13 30  1  0  0  0  0
 14 15  1  0  0  0  0
 15 31  1  0  0  0  0
 16 17  2  0  0  0  0
 16 18  1  0  0  0  0
 18 19  2  0  0  0  0
 18 23  1  0  0  0  0
 19 20  1  0  0  0  0
 19 32  1  0  0  0  0
 20 21  2  0  0  0  0
 20 33  1  0  0  0  0
 21 22  1  0  0  0  0
 21 34  1  0  0  0  0
 22 23  2  0  0  0  0
 22 35  1  0  0  0  0
 23 24  1  0  0  0  0
 24 36  1  0  0  0  0
M  END
$$$$
Target_lig_480
 OpenBabel04172516563D

 56 60  0  0  1  0  0  0  0  0999 V2000
    2.3188   -1.3810   -0.8654 C   0  0  1  0  0  0  0  0  0  0  0  0
    1.0134   -0.7920   -1.2877 C   0  0  1  0  0  0  0  0  0  0  0  0
   -0.0723   -1.7905   -1.6042 C   0  0  0  0  0  0  0  0  0  0  0  0
   -0.3570   -2.5976   -0.4053 C   0  0  2  0  0  0  0  0  0  0  0  0
    0.8060   -3.3982    0.1229 N   0  0  1  0  0  4  0  0  0  0  0  0
    2.2095   -2.6562    0.0354 C   0  0  0  0  0  0  0  0  0  0  0  0
    0.3221   -3.6613    1.6521 C   0  0  0  0  0  0  0  0  0  0  0  0
   -1.0857   -4.3967    1.7738 C   0  0  0  0  0  0  0  0  0  0  0  0
   -2.0718   -3.9445    0.7364 C   0  0  0  0  0  0  0  0  0  0  0  0
   -1.6038   -3.3862   -0.4329 C   0  0  0  0  0  0  0  0  0  0  0  0
   -2.6753   -3.2444   -1.2749 N   0  0  0  0  0  0  0  0  0  0  0  0
   -3.6661   -2.7960   -0.4346 C   0  0  0  0  0  0  0  0  0  0  0  0
   -3.4192   -3.4007    0.7976 C   0  0  0  0  0  0  0  0  0  0  0  0
   -4.3627   -3.2399    1.8154 C   0  0  0  0  0  0  0  0  0  0  0  0
   -5.3822   -2.2879    1.6209 C   0  0  0  0  0  0  0  0  0  0  0  0
   -5.4797   -1.5478    0.4390 C   0  0  0  0  0  0  0  0  0  0  0  0
   -4.6574   -1.8331   -0.6496 C   0  0  0  0  0  0  0  0  0  0  0  0
    1.0110   -4.7504   -0.5482 C   0  0  0  0  0  0  0  0  0  0  0  0
    0.9085    0.5608   -0.5154 C   0  0  2  0  0  0  0  0  0  0  0  0
    1.5045    1.4765   -1.6098 C   0  0  2  0  0  0  0  0  0  0  0  0
    2.8974    0.8857   -2.1497 C   0  0  0  0  0  0  0  0  0  0  0  0
    3.2891   -0.7111   -1.8915 C   0  0  0  0  0  0  0  0  0  0  0  0
    1.5661    2.8322   -1.2033 O   0  0  0  0  0  0  0  0  0  0  0  0
    1.8366    0.8263    0.7424 C   0  0  0  0  0  0  0  0  0  0  0  0
    2.9095    1.4198    0.6999 O   0  0  0  0  0  0  0  0  0  0  0  0
    1.4483    0.1356    1.8558 O   0  0  0  0  0  0  0  0  0  0  0  0
    2.4324    0.2012    2.9150 C   0  0  0  0  0  0  0  0  0  0  0  0
    2.8034   -0.8366   -0.0551 H   0  0  0  0  0  0  0  0  0  0  0  0
    1.0978   -0.5262   -2.3551 H   0  0  0  0  0  0  0  0  0  0  0  0
   -0.9613   -1.2558   -1.9704 H   0  0  0  0  0  0  0  0  0  0  0  0
    0.2356   -2.4511   -2.4290 H   0  0  0  0  0  0  0  0  0  0  0  0
   -0.5454   -1.8266    0.3555 H   0  0  0  0  0  0  0  0  0  0  0  0
    2.3596   -2.3367    1.0759 H   0  0  0  0  0  0  0  0  0  0  0  0
    2.9906   -3.3947   -0.1693 H   0  0  0  0  0  0  0  0  0  0  0  0
    1.1130   -4.2174    2.1541 H   0  0  0  0  0  0  0  0  0  0  0  0
    0.2431   -2.6655    2.1086 H   0  0  0  0  0  0  0  0  0  0  0  0
   -1.4934   -4.2402    2.7760 H   0  0  0  0  0  0  0  0  0  0  0  0
   -0.9303   -5.4710    1.6413 H   0  0  0  0  0  0  0  0  0  0  0  0
   -2.6658   -3.1025   -2.2759 H   0  0  0  0  0  0  0  0  0  0  0  0
   -4.2740   -3.7433    2.7730 H   0  0  0  0  0  0  0  0  0  0  0  0
   -6.0840   -2.0842    2.4265 H   0  0  0  0  0  0  0  0  0  0  0  0
   -6.2146   -0.7482    0.3587 H   0  0  0  0  0  0  0  0  0  0  0  0
   -4.7236   -1.2585   -1.5694 H   0  0  0  0  0  0  0  0  0  0  0  0
    1.6504   -5.3461    0.1132 H   0  0  0  0  0  0  0  0  0  0  0  0
    0.0626   -5.2668   -0.6962 H   0  0  0  0  0  0  0  0  0  0  0  0
    1.5117   -4.5871   -1.5064 H   0  0  0  0  0  0  0  0  0  0  0  0
   -0.1174    0.8212   -0.2422 H   0  0  0  0  0  0  0  0  0  0  0  0
    0.7917    1.4866   -2.4436 H   0  0  0  0  0  0  0  0  0  0  0  0
    2.8790    1.0359   -3.2385 H   0  0  0  0  0  0  0  0  0  0  0  0
    3.7171    1.5151   -1.7875 H   0  0  0  0  0  0  0  0  0  0  0  0
    4.3285   -0.7395   -1.5436 H   0  0  0  0  0  0  0  0  0  0  0  0
    3.2621   -1.2262   -2.8607 H   0  0  0  0  0  0  0  0  0  0  0  0
    0.7120    3.1029   -0.8289 H   0  0  0  0  0  0  0  0  0  0  0  0
    3.1807   -0.5899    2.7665 H   0  0  0  0  0  0  0  0  0  0  0  0
    1.9440    0.0342    3.8789 H   0  0  0  0  0  0  0  0  0  0  0  0
    2.9471    1.1713    2.9743 H   0  0  0  0  0  0  0  0  0  0  0  0
  1  2  1  0  0  0  0
  1  6  1  0  0  0  0
  1 22  1  0  0  0  0
  1 28  1  1  0  0  0
  2  3  1  0  0  0  0
  2 19  1  0  0  0  0
  2 29  1  6  0  0  0
  3  4  1  0  0  0  0
  3 30  1  0  0  0  0
  3 31  1  0  0  0  0
  4  5  1  0  0  0  0
  4 10  1  0  0  0  0
  4 32  1  1  0  0  0
  5  6  1  0  0  0  0
  5  7  1  0  0  0  0
  5 18  1  6  0  0  0
  6 33  1  0  0  0  0
  6 34  1  0  0  0  0
  7  8  1  0  0  0  0
  7 35  1  0  0  0  0
  7 36  1  0  0  0  0
  8  9  1  0  0  0  0
  8 37  1  0  0  0  0
  8 38  1  0  0  0  0
  9 10  2  0  0  0  0
  9 13  1  0  0  0  0
 10 11  1  0  0  0  0
 11 12  1  0  0  0  0
 11 39  1  0  0  0  0
 12 13  1  0  0  0  0
 12 17  2  0  0  0  0
 13 14  2  0  0  0  0
 14 15  1  0  0  0  0
 14 40  1  0  0  0  0
 15 16  2  0  0  0  0
 15 41  1  0  0  0  0
 16 17  1  0  0  0  0
 16 42  1  0  0  0  0
 17 43  1  0  0  0  0
 18 44  1  0  0  0  0
 18 45  1  0  0  0  0
 18 46  1  0  0  0  0
 19 20  1  0  0  0  0
 19 24  1  0  0  0  0
 19 47  1  1  0  0  0
 20 21  1  0  0  0  0
 20 23  1  0  0  0  0
 20 48  1  6  0  0  0
 21 22  1  0  0  0  0
 21 49  1  0  0  0  0
 21 50  1  0  0  0  0
 22 51  1  0  0  0  0
 22 52  1  0  0  0  0
 23 53  1  0  0  0  0
 24 25  2  0  0  0  0
 24 26  1  0  0  0  0
 26 27  1  0  0  0  0
 27 54  1  0  0  0  0
 27 55  1  0  0  0  0
 27 56  1  0  0  0  0
M  END
$$$$
Target_lig_481
 OpenBabel04172516563D

 46 48  0  0  1  0  0  0  0  0999 V2000
    3.0210    2.1349   -0.2556 C   0  0  1  0  0  0  0  0  0  0  0  0
    2.4402    0.8874   -0.9317 C   0  0  0  0  0  0  0  0  0  0  0  0
    1.2829    0.2227   -0.1925 C   0  0  2  0  0  0  0  0  0  0  0  0
    0.3537    1.1625    0.5746 C   0  0  1  0  0  0  0  0  0  0  0  0
    1.0640    2.2423    1.3792 C   0  0  1  0  0  0  0  0  0  0  0  0
    2.5814    2.3411    1.1978 C   0  0  2  0  0  0  0  0  0  0  0  0
    3.0562    3.6986    1.7273 C   0  0  0  0  0  0  0  0  0  0  0  0
    3.5157    4.5814    0.9996 O   0  0  0  0  0  0  0  0  0  0  0  0
    2.8979    3.9462    3.2076 C   0  0  0  0  0  0  0  0  0  0  0  0
    0.4149    3.4832    1.0689 O   0  0  0  0  0  0  0  0  0  0  0  0
   -0.8563    3.2510    0.4549 C   0  0  1  0  0  0  0  0  0  0  0  0
   -0.7587    1.8848   -0.2196 C   0  0  2  0  0  0  0  0  0  0  0  0
   -2.0241    1.0429   -0.0783 C   0  0  0  0  0  0  0  0  0  0  0  0
   -1.9810   -0.1793   -0.2567 O   0  0  0  0  0  0  0  0  0  0  0  0
   -3.3523    1.7039    0.1503 C   0  0  1  0  0  0  0  0  0  0  0  0
   -3.2707    3.0280    0.8569 C   0  0  0  0  0  0  0  0  0  0  0  0
   -4.2674    3.7291    1.0320 O   0  0  0  0  0  0  0  0  0  0  0  0
   -1.9529    3.3814    1.4967 C   0  0  0  0  0  0  0  0  0  0  0  0
   -4.0991    1.7378   -1.1563 C   0  0  0  0  0  0  0  0  0  0  0  0
   -4.0057    2.6935   -1.9267 O   0  0  0  0  0  0  0  0  0  0  0  0
   -4.7922    0.4656   -1.5753 C   0  0  0  0  0  0  0  0  0  0  0  0
   -0.4847    2.0947   -1.7127 C   0  0  0  0  0  0  0  0  0  0  0  0
    1.8451   -0.6826    0.7655 O   0  0  0  0  0  0  0  0  0  0  0  0
    4.4476    1.9896   -0.2844 O   0  0  0  0  0  0  0  0  0  0  0  0
    2.7688    3.0185   -0.8537 H   0  0  0  0  0  0  0  0  0  0  0  0
    2.1184    1.1726   -1.9409 H   0  0  0  0  0  0  0  0  0  0  0  0
    3.2348    0.1446   -1.0918 H   0  0  0  0  0  0  0  0  0  0  0  0
    0.7072   -0.3958   -0.8881 H   0  0  0  0  0  0  0  0  0  0  0  0
   -0.1322    0.5301    1.3353 H   0  0  0  0  0  0  0  0  0  0  0  0
    0.8664    2.0617    2.4444 H   0  0  0  0  0  0  0  0  0  0  0  0
    3.0786    1.5756    1.8098 H   0  0  0  0  0  0  0  0  0  0  0  0
    3.3871    4.8864    3.4770 H   0  0  0  0  0  0  0  0  0  0  0  0
    1.8384    4.0227    3.4659 H   0  0  0  0  0  0  0  0  0  0  0  0
    3.3644    3.1355    3.7720 H   0  0  0  0  0  0  0  0  0  0  0  0
   -0.9973    4.0518   -0.2818 H   0  0  0  0  0  0  0  0  0  0  0  0
   -3.9021    1.0635    0.8529 H   0  0  0  0  0  0  0  0  0  0  0  0
   -1.9931    4.4142    1.8622 H   0  0  0  0  0  0  0  0  0  0  0  0
   -1.7864    2.7404    2.3666 H   0  0  0  0  0  0  0  0  0  0  0  0
   -5.1795   -0.0648   -0.6998 H   0  0  0  0  0  0  0  0  0  0  0  0
   -4.0832   -0.1783   -2.1010 H   0  0  0  0  0  0  0  0  0  0  0  0
   -5.6352    0.7011   -2.2321 H   0  0  0  0  0  0  0  0  0  0  0  0
    0.4134    2.6986   -1.8752 H   0  0  0  0  0  0  0  0  0  0  0  0
   -1.3145    2.6312   -2.1873 H   0  0  0  0  0  0  0  0  0  0  0  0
   -0.3794    1.1489   -2.2525 H   0  0  0  0  0  0  0  0  0  0  0  0
    2.1993   -1.4422    0.2700 H   0  0  0  0  0  0  0  0  0  0  0  0
    4.7346    2.1056   -1.2070 H   0  0  0  0  0  0  0  0  0  0  0  0
  1  2  1  0  0  0  0
  1  6  1  0  0  0  0
  1 24  1  0  0  0  0
  1 25  1  6  0  0  0
  2  3  1  0  0  0  0
  2 26  1  0  0  0  0
  2 27  1  0  0  0  0
  3  4  1  0  0  0  0
  3 23  1  0  0  0  0
  3 28  1  6  0  0  0
  4  5  1  0  0  0  0
  4 12  1  0  0  0  0
  4 29  1  1  0  0  0
  5  6  1  0  0  0  0
  5 10  1  0  0  0  0
  5 30  1  1  0  0  0
  6  7  1  0  0  0  0
  6 31  1  1  0  0  0
  7  8  2  0  0  0  0
  7  9  1  0  0  0  0
  9 32  1  0  0  0  0
  9 33  1  0  0  0  0
  9 34  1  0  0  0  0
 10 11  1  0  0  0  0
 11 12  1  0  0  0  0
 11 18  1  0  0  0  0
 11 35  1  6  0  0  0
 12 13  1  0  0  0  0
 12 22  1  6  0  0  0
 13 14  2  0  0  0  0
 13 15  1  0  0  0  0
 15 16  1  0  0  0  0
 15 19  1  0  0  0  0
 15 36  1  1  0  0  0
 16 17  2  0  0  0  0
 16 18  1  0  0  0  0
 18 37  1  0  0  0  0
 18 38  1  0  0  0  0
 19 20  2  0  0  0  0
 19 21  1  0  0  0  0
 21 39  1  0  0  0  0
 21 40  1  0  0  0  0
 21 41  1  0  0  0  0
 22 42  1  0  0  0  0
 22 43  1  0  0  0  0
 22 44  1  0  0  0  0
 23 45  1  0  0  0  0
 24 46  1  0  0  0  0
M  END
$$$$
Target_lig_482
 OpenBabel04172516563D

 40 42  0  0  0  0  0  0  0  0999 V2000
    4.9183    1.7613    0.2561 C   0  0  0  0  0  0  0  0  0  0  0  0
    4.4353    1.6918   -1.1289 N   0  0  0  0  0  0  0  0  0  0  0  0
    4.8606    2.9002   -1.8441 C   0  0  0  0  0  0  0  0  0  0  0  0
    4.9481    0.4989   -1.8368 C   0  0  0  0  0  0  0  0  0  0  0  0
    4.4186   -0.8070   -1.2411 C   0  0  0  0  0  0  0  0  0  0  0  0
    4.9454   -2.0695   -1.9449 C   0  0  0  0  0  0  0  0  0  0  0  0
    6.4318   -2.1646   -2.0198 N   0  0  0  0  0  0  0  0  0  0  0  0
    7.0580   -2.1037   -3.3056 C   0  0  0  0  0  0  0  0  0  0  0  0
    6.3361   -2.1597   -4.5221 C   0  0  0  0  0  0  0  0  0  0  0  0
    6.9575   -2.1273   -5.7808 C   0  0  0  0  0  0  0  0  0  0  0  0
    8.3322   -2.0564   -5.8784 C   0  0  0  0  0  0  0  0  0  0  0  0
    9.0806   -1.9988   -4.7135 C   0  0  0  0  0  0  0  0  0  0  0  0
    8.4598   -2.0113   -3.4431 C   0  0  0  0  0  0  0  0  0  0  0  0
    9.5855   -1.8492   -2.0803 S   0  0  0  0  0  0  0  0  0  0  0  0
    8.5245   -2.0550   -0.6802 C   0  0  0  0  0  0  0  0  0  0  0  0
    7.1310   -2.2449   -0.7712 C   0  0  0  0  0  0  0  0  0  0  0  0
    6.4639   -2.4942    0.4531 C   0  0  0  0  0  0  0  0  0  0  0  0
    7.1121   -2.4125    1.6871 C   0  0  0  0  0  0  0  0  0  0  0  0
    8.4681   -2.1549    1.7562 C   0  0  0  0  0  0  0  0  0  0  0  0
    9.1771   -2.0086    0.5689 C   0  0  0  0  0  0  0  0  0  0  0  0
    6.2053   -2.5959    3.1442 Cl  0  0  0  0  0  0  0  0  0  0  0  0
    4.5791    2.6874    0.7359 H   0  0  0  0  0  0  0  0  0  0  0  0
    6.0124    1.7254    0.3149 H   0  0  0  0  0  0  0  0  0  0  0  0
    4.5090    0.9523    0.8674 H   0  0  0  0  0  0  0  0  0  0  0  0
    4.4996    3.8003   -1.3338 H   0  0  0  0  0  0  0  0  0  0  0  0
    4.4337    2.9190   -2.8522 H   0  0  0  0  0  0  0  0  0  0  0  0
    5.9520    2.9663   -1.9260 H   0  0  0  0  0  0  0  0  0  0  0  0
    6.0448    0.5078   -1.8415 H   0  0  0  0  0  0  0  0  0  0  0  0
    4.6188    0.5401   -2.8833 H   0  0  0  0  0  0  0  0  0  0  0  0
    3.3223   -0.8159   -1.3042 H   0  0  0  0  0  0  0  0  0  0  0  0
    4.6459   -0.8514   -0.1776 H   0  0  0  0  0  0  0  0  0  0  0  0
    4.4479   -2.0952   -2.9123 H   0  0  0  0  0  0  0  0  0  0  0  0
    4.5522   -2.9671   -1.4494 H   0  0  0  0  0  0  0  0  0  0  0  0
    5.2601   -2.2493   -4.5655 H   0  0  0  0  0  0  0  0  0  0  0  0
    6.3516   -2.1700   -6.6841 H   0  0  0  0  0  0  0  0  0  0  0  0
    8.8242   -2.0419   -6.8496 H   0  0  0  0  0  0  0  0  0  0  0  0
   10.1651   -1.9392   -4.7921 H   0  0  0  0  0  0  0  0  0  0  0  0
    5.4107   -2.7440    0.4805 H   0  0  0  0  0  0  0  0  0  0  0  0
    8.9815   -2.0842    2.7107 H   0  0  0  0  0  0  0  0  0  0  0  0
   10.2518   -1.8411    0.6215 H   0  0  0  0  0  0  0  0  0  0  0  0
  1  2  1  0  0  0  0
  1 22  1  0  0  0  0
  1 23  1  0  0  0  0
  1 24  1  0  0  0  0
  2  3  1  0  0  0  0
  2  4  1  0  0  0  0
  3 25  1  0  0  0  0
  3 26  1  0  0  0  0
  3 27  1  0  0  0  0
  4  5  1  0  0  0  0
  4 28  1  0  0  0  0
  4 29  1  0  0  0  0
  5  6  1  0  0  0  0
  5 30  1  0  0  0  0
  5 31  1  0  0  0  0
  6  7  1  0  0  0  0
  6 32  1  0  0  0  0
  6 33  1  0  0  0  0
  7  8  1  0  0  0  0
  7 16  1  0  0  0  0
  8  9  2  0  0  0  0
  8 13  1  0  0  0  0
  9 10  1  0  0  0  0
  9 34  1  0  0  0  0
 10 11  2  0  0  0  0
 10 35  1  0  0  0  0
 11 12  1  0  0  0  0
 11 36  1  0  0  0  0
 12 13  2  0  0  0  0
 12 37  1  0  0  0  0
 13 14  1  0  0  0  0
 14 15  1  0  0  0  0
 15 16  2  0  0  0  0
 15 20  1  0  0  0  0
 16 17  1  0  0  0  0
 17 18  2  0  0  0  0
 17 38  1  0  0  0  0
 18 19  1  0  0  0  0
 18 21  1  0  0  0  0
 19 20  2  0  0  0  0
 19 39  1  0  0  0  0
 20 40  1  0  0  0  0
M  END
$$$$
Target_lig_495
 OpenBabel04172516563D

118121  0  0  1  0  0  0  0  0999 V2000
    2.7606   15.2344    0.2114 C   0  0  1  0  0  0  0  0  0  0  0  0
    1.2406   15.2760    0.2420 C   0  0  2  0  0  0  0  0  0  0  0  0
    0.7296   14.5209    1.4803 C   0  0  2  0  0  0  0  0  0  0  0  0
    1.2336   13.0495    1.4860 C   0  0  2  0  0  0  0  0  0  0  0  0
    2.6786   13.0240    1.3307 O   0  0  0  0  0  0  0  0  0  0  0  0
    3.2448   13.7794    0.2314 C   0  0  2  0  0  0  0  0  0  0  0  0
    4.7885   13.8077    0.3778 C   0  0  0  0  0  0  0  0  0  0  0  0
    5.3317   12.4666    0.2948 N   0  0  0  0  0  0  0  0  0  0  0  0
    5.6251   11.8458   -0.8617 C   0  0  0  0  0  0  0  0  0  0  0  0
    6.0697   12.3651   -1.9520 N   0  0  0  0  0  0  0  0  0  0  0  0
    5.4116   10.5164   -0.7954 N   0  0  0  0  0  0  0  0  0  0  0  0
    0.5795   12.2476    0.4837 O   0  0  0  0  0  0  0  0  0  0  0  0
   -0.3635   11.2275    0.9468 C   0  0  2  0  0  0  0  0  0  0  0  0
   -0.2661    9.9491    0.0526 C   0  0  1  0  0  0  0  0  0  0  0  0
   -0.6598   10.4160   -1.4470 C   0  0  1  0  0  0  0  0  0  0  0  0
   -2.1478   10.9334   -1.5542 C   0  0  2  0  0  0  0  0  0  0  0  0
   -2.3782   12.0595   -0.5195 C   0  0  0  0  0  0  0  0  0  0  0  0
   -1.8600   11.6910    0.8812 C   0  0  1  0  0  0  0  0  0  0  0  0
   -2.7901   10.6947    1.4200 N   0  0  0  0  0  0  0  0  0  0  0  0
   -2.9394   10.3414    2.7116 C   0  0  0  0  0  0  0  0  0  0  0  0
   -2.3732   10.8396    3.7382 N   0  0  0  0  0  0  0  0  0  0  0  0
   -3.8125    9.3232    2.8189 N   0  0  0  0  0  0  0  0  0  0  0  0
   -3.2142    9.9275   -1.3847 N   0  0  0  0  0  0  0  0  0  0  0  0
   -3.4696    8.8844   -2.2156 C   0  0  0  0  0  0  0  0  0  0  0  0
   -2.7588    8.3232   -3.1064 N   0  0  0  0  0  0  0  0  0  0  0  0
   -4.7186    8.4162   -2.0101 N   0  0  0  0  0  0  0  0  0  0  0  0
    0.1646   11.5182   -1.9108 O   0  0  0  0  0  0  0  0  0  0  0  0
    0.9862    9.1835    0.2164 O   0  0  0  0  0  0  0  0  0  0  0  0
    1.3145    8.6395    1.5513 C   0  0  1  0  0  0  0  0  0  0  0  0
    0.7572    7.2289    1.9735 C   0  0  1  0  0  0  0  0  0  0  0  0
    1.9363    6.2585    1.8935 C   0  0  2  0  0  0  0  0  0  0  0  0
    3.1070    7.1922    2.1692 C   0  0  1  0  0  0  0  0  0  0  0  0
    2.7573    8.5250    1.7014 O   0  0  0  0  0  0  0  0  0  0  0  0
    3.5613    7.2024    3.6357 C   0  0  0  0  0  0  0  0  0  0  0  0
    4.8834    7.7675    3.7002 O   0  0  0  0  0  0  0  0  0  0  0  0
    1.9877    5.5069    0.6766 O   0  0  0  0  0  0  0  0  0  0  0  0
    2.3587    6.2374   -0.4747 C   0  0  1  0  0  0  0  0  0  0  0  0
    3.7401    6.6045   -0.4454 O   0  0  0  0  0  0  0  0  0  0  0  0
    4.7163    5.5661   -0.6148 C   0  0  2  0  0  0  0  0  0  0  0  0
    4.3114    4.5130   -1.6793 C   0  0  2  0  0  0  0  0  0  0  0  0
    2.8091    4.1865   -1.7512 C   0  0  1  0  0  0  0  0  0  0  0  0
    1.9732    5.4667   -1.7514 C   0  0  2  0  0  0  0  0  0  0  0  0
    2.2340    6.3033   -2.9439 N   0  0  0  0  0  0  0  0  0  0  0  0
    1.4938    6.2507   -4.0709 C   0  0  0  0  0  0  0  0  0  0  0  0
    0.8086    5.2642   -4.5103 N   0  0  0  0  0  0  0  0  0  0  0  0
    1.5531    7.3892   -4.7882 N   0  0  0  0  0  0  0  0  0  0  0  0
    2.5133    3.3571   -2.8917 O   0  0  0  0  0  0  0  0  0  0  0  0
    5.0966    3.3296   -1.6063 O   0  0  0  0  0  0  0  0  0  0  0  0
    5.7689    5.2181    0.5539 C   0  0  0  0  0  0  0  0  0  0  0  0
    5.3794    5.1527    1.9824 N   0  0  0  0  0  0  0  0  0  0  0  0
    5.7224    4.1829    2.8794 C   0  0  0  0  0  0  0  0  0  0  0  0
    5.8800    2.9324    2.6886 N   0  0  0  0  0  0  0  0  0  0  0  0
    5.8073    4.6430    4.1687 N   0  0  0  0  0  0  0  0  0  0  0  0
    0.4334    7.2146    3.3831 O   0  0  0  0  0  0  0  0  0  0  0  0
   -0.7268   14.6426    1.5156 N   0  0  0  0  0  0  0  0  0  0  0  0
   -1.4239   14.4900    2.6662 C   0  0  0  0  0  0  0  0  0  0  0  0
   -1.0508   13.7407    3.6276 N   0  0  0  0  0  0  0  0  0  0  0  0
   -2.6129   15.1109    2.6032 N   0  0  0  0  0  0  0  0  0  0  0  0
    0.7127   14.7531   -0.9931 O   0  0  0  0  0  0  0  0  0  0  0  0
    3.2389   15.9308   -0.9431 O   0  0  0  0  0  0  0  0  0  0  0  0
    3.1468   15.7661    1.0911 H   0  0  0  0  0  0  0  0  0  0  0  0
    0.9179   16.3244    0.2752 H   0  0  0  0  0  0  0  0  0  0  0  0
    1.1629   15.0270    2.3557 H   0  0  0  0  0  0  0  0  0  0  0  0
    1.0590   12.6089    2.4711 H   0  0  0  0  0  0  0  0  0  0  0  0
    2.9932   13.2764   -0.7103 H   0  0  0  0  0  0  0  0  0  0  0  0
    5.0560   14.2107    1.3625 H   0  0  0  0  0  0  0  0  0  0  0  0
    5.2548   14.4665   -0.3648 H   0  0  0  0  0  0  0  0  0  0  0  0
    4.9465   11.8525    1.0039 H   0  0  0  0  0  0  0  0  0  0  0  0
    6.2300   13.3662   -1.8036 H   0  0  0  0  0  0  0  0  0  0  0  0
    4.5020   10.2554   -0.4274 H   0  0  0  0  0  0  0  0  0  0  0  0
    5.5516   10.0978   -1.7099 H   0  0  0  0  0  0  0  0  0  0  0  0
   -0.1121   10.9649    1.9744 H   0  0  0  0  0  0  0  0  0  0  0  0
   -1.0309    9.2195    0.3366 H   0  0  0  0  0  0  0  0  0  0  0  0
   -0.4585    9.6122   -2.1528 H   0  0  0  0  0  0  0  0  0  0  0  0
   -2.3140   11.3967   -2.5390 H   0  0  0  0  0  0  0  0  0  0  0  0
   -3.4539   12.2930   -0.4485 H   0  0  0  0  0  0  0  0  0  0  0  0
   -1.9040   12.9878   -0.8596 H   0  0  0  0  0  0  0  0  0  0  0  0
   -1.9929   12.5742    1.4805 H   0  0  0  0  0  0  0  0  0  0  0  0
   -3.0619    9.9726    0.7516 H   0  0  0  0  0  0  0  0  0  0  0  0
   -1.7525   11.6197    3.4776 H   0  0  0  0  0  0  0  0  0  0  0  0
   -4.6540    9.4805    2.2804 H   0  0  0  0  0  0  0  0  0  0  0  0
   -4.0467    9.1842    3.7961 H   0  0  0  0  0  0  0  0  0  0  0  0
   -4.1140   10.4013   -1.2682 H   0  0  0  0  0  0  0  0  0  0  0  0
   -1.8448    8.7477   -3.2135 H   0  0  0  0  0  0  0  0  0  0  0  0
   -4.9687    8.2680   -1.0418 H   0  0  0  0  0  0  0  0  0  0  0  0
   -4.8362    7.5493   -2.5331 H   0  0  0  0  0  0  0  0  0  0  0  0
   -0.2218   11.8999   -2.7216 H   0  0  0  0  0  0  0  0  0  0  0  0
    1.0376    9.3737    2.3041 H   0  0  0  0  0  0  0  0  0  0  0  0
   -0.1200    6.8997    1.4154 H   0  0  0  0  0  0  0  0  0  0  0  0
    1.8860    5.4781    2.6676 H   0  0  0  0  0  0  0  0  0  0  0  0
    3.9867    6.9341    1.6084 H   0  0  0  0  0  0  0  0  0  0  0  0
    2.9125    7.7981    4.2766 H   0  0  0  0  0  0  0  0  0  0  0  0
    3.6310    6.1879    4.0432 H   0  0  0  0  0  0  0  0  0  0  0  0
    4.8249    8.6215    3.2317 H   0  0  0  0  0  0  0  0  0  0  0  0
    1.7690    7.1496   -0.5091 H   0  0  0  0  0  0  0  0  0  0  0  0
    5.4285    6.1421   -1.2260 H   0  0  0  0  0  0  0  0  0  0  0  0
    4.5517    4.9629   -2.6556 H   0  0  0  0  0  0  0  0  0  0  0  0
    2.5319    3.5669   -0.8921 H   0  0  0  0  0  0  0  0  0  0  0  0
    0.9042    5.2083   -1.7108 H   0  0  0  0  0  0  0  0  0  0  0  0
    2.5358    7.2455   -2.7062 H   0  0  0  0  0  0  0  0  0  0  0  0
    0.9114    4.4704   -3.8683 H   0  0  0  0  0  0  0  0  0  0  0  0
    2.4916    7.7418   -4.9204 H   0  0  0  0  0  0  0  0  0  0  0  0
    1.1094    7.2295   -5.6902 H   0  0  0  0  0  0  0  0  0  0  0  0
    3.1420    3.5755   -3.6056 H   0  0  0  0  0  0  0  0  0  0  0  0
    4.4989    2.5733   -1.7623 H   0  0  0  0  0  0  0  0  0  0  0  0
    6.3927    4.3641    0.2758 H   0  0  0  0  0  0  0  0  0  0  0  0
    6.4570    6.0781    0.5437 H   0  0  0  0  0  0  0  0  0  0  0  0
    5.5591    6.0517    2.4319 H   0  0  0  0  0  0  0  0  0  0  0  0
    5.7180    2.7243    1.6990 H   0  0  0  0  0  0  0  0  0  0  0  0
    6.4124    5.4427    4.3216 H   0  0  0  0  0  0  0  0  0  0  0  0
    6.0720    3.8840    4.7897 H   0  0  0  0  0  0  0  0  0  0  0  0
   -0.2614    7.8665    3.5522 H   0  0  0  0  0  0  0  0  0  0  0  0
   -1.1028   15.3643    0.9097 H   0  0  0  0  0  0  0  0  0  0  0  0
   -1.7817   13.7047    4.3487 H   0  0  0  0  0  0  0  0  0  0  0  0
   -2.9016   15.4455    3.5175 H   0  0  0  0  0  0  0  0  0  0  0  0
   -3.3345   14.4404    2.3462 H   0  0  0  0  0  0  0  0  0  0  0  0
    0.6548   13.7748   -0.9065 H   0  0  0  0  0  0  0  0  0  0  0  0
    2.6146   15.7315   -1.6704 H   0  0  0  0  0  0  0  0  0  0  0  0
  1  2  1  0  0  0  0
  1  6  1  0  0  0  0
  1 60  1  0  0  0  0
  1 61  1  1  0  0  0
  2  3  1  0  0  0  0
  2 59  1  0  0  0  0
  2 62  1  1  0  0  0
  3  4  1  0  0  0  0
  3 55  1  0  0  0  0
  3 63  1  1  0  0  0
  4  5  1  0  0  0  0
  4 12  1  0  0  0  0
  4 64  1  1  0  0  0
  5  6  1  0  0  0  0
  6  7  1  0  0  0  0
  6 65  1  6  0  0  0
  7  8  1  0  0  0  0
  7 66  1  0  0  0  0
  7 67  1  0  0  0  0
  8  9  1  0  0  0  0
  8 68  1  0  0  0  0
  9 10  2  0  0  0  0
  9 11  1  0  0  0  0
 10 69  1  0  0  0  0
 11 70  1  0  0  0  0
 11 71  1  0  0  0  0
 13 14  1  0  0  0  0
 13 18  1  0  0  0  0
 13 12  1  0  0  0  0
 13 72  1  1  0  0  0
 14 15  1  0  0  0  0
 14 28  1  0  0  0  0
 14 73  1  1  0  0  0
 15 16  1  0  0  0  0
 15 27  1  0  0  0  0
 15 74  1  6  0  0  0
 16 17  1  0  0  0  0
 16 23  1  0  0  0  0
 16 75  1  6  0  0  0
 17 18  1  0  0  0  0
 17 76  1  0  0  0  0
 17 77  1  0  0  0  0
 18 19  1  0  0  0  0
 18 78  1  1  0  0  0
 19 20  1  0  0  0  0
 19 79  1  0  0  0  0
 20 21  2  0  0  0  0
 20 22  1  0  0  0  0
 21 80  1  0  0  0  0
 22 81  1  0  0  0  0
 22 82  1  0  0  0  0
 23 24  1  0  0  0  0
 23 83  1  0  0  0  0
 24 25  2  0  0  0  0
 24 26  1  0  0  0  0
 25 84  1  0  0  0  0
 26 85  1  0  0  0  0
 26 86  1  0  0  0  0
 27 87  1  0  0  0  0
 28 29  1  0  0  0  0
 29 30  1  0  0  0  0
 29 33  1  0  0  0  0
 29 88  1  1  0  0  0
 30 31  1  0  0  0  0
 30 54  1  0  0  0  0
 30 89  1  6  0  0  0
 31 32  1  0  0  0  0
 31 36  1  0  0  0  0
 31 90  1  1  0  0  0
 32 33  1  0  0  0  0
 32 34  1  0  0  0  0
 32 91  1  6  0  0  0
 34 35  1  0  0  0  0
 34 92  1  0  0  0  0
 34 93  1  0  0  0  0
 35 94  1  0  0  0  0
 37 38  1  0  0  0  0
 37 42  1  0  0  0  0
 37 36  1  0  0  0  0
 37 95  1  1  0  0  0
 38 39  1  0  0  0  0
 39 40  1  0  0  0  0
 39 49  1  0  0  0  0
 39 96  1  6  0  0  0
 40 41  1  0  0  0  0
 40 48  1  0  0  0  0
 40 97  1  6  0  0  0
 41 42  1  0  0  0  0
 41 47  1  0  0  0  0
 41 98  1  1  0  0  0
 42 43  1  0  0  0  0
 42 99  1  1  0  0  0
 43 44  1  0  0  0  0
 43100  1  0  0  0  0
 44 45  2  0  0  0  0
 44 46  1  0  0  0  0
 45101  1  0  0  0  0
 46102  1  0  0  0  0
 46103  1  0  0  0  0
 47104  1  0  0  0  0
 48105  1  0  0  0  0
 49 50  1  0  0  0  0
 49106  1  0  0  0  0
 49107  1  0  0  0  0
 50 51  1  0  0  0  0
 50108  1  0  0  0  0
 51 52  2  0  0  0  0
 51 53  1  0  0  0  0
 52109  1  0  0  0  0
 53110  1  0  0  0  0
 53111  1  0  0  0  0
 54112  1  0  0  0  0
 55 56  1  0  0  0  0
 55113  1  0  0  0  0
 56 57  2  0  0  0  0
 56 58  1  0  0  0  0
 57114  1  0  0  0  0
 58115  1  0  0  0  0
 58116  1  0  0  0  0
 59117  1  0  0  0  0
 60118  1  0  0  0  0
M  END
$$$$
Target_lig_496
 OpenBabel04172516563D

 68 72  0  0  1  0  0  0  0  0999 V2000
    2.5159   -6.9787   -3.4620 C   0  0  0  0  0  0  0  0  0  0  0  0
    2.2507   -5.6070   -2.8479 C   0  0  1  0  0  0  0  0  0  0  0  0
    2.9836   -5.4257   -1.5032 C   0  0  2  0  0  0  0  0  0  0  0  0
    2.8011   -3.9757   -1.0093 C   0  0  2  0  0  0  0  0  0  0  0  0
    3.2520   -2.9930   -2.0905 C   0  0  0  0  0  0  0  0  0  0  0  0
    2.4859   -3.2721   -3.3801 C   0  0  1  0  0  0  0  0  0  0  0  0
    2.6959   -4.6278   -3.7955 O   0  0  0  0  0  0  0  0  0  0  0  0
    1.0810   -2.9924   -3.2745 O   0  0  0  0  0  0  0  0  0  0  0  0
    0.7223   -1.6154   -3.0419 C   0  0  1  0  0  0  0  0  0  0  0  0
    1.2500   -0.6766   -4.1262 C   0  0  0  0  0  0  0  0  0  0  0  0
    0.5416   -0.9358   -5.4606 C   0  0  1  0  0  0  0  0  0  0  0  0
   -0.9276   -0.5304   -5.3057 C   0  0  0  0  0  0  0  0  0  0  0  0
   -1.5727   -1.0770   -4.0383 C   0  0  0  0  0  0  0  0  0  0  0  0
   -0.8024   -1.5810   -2.9695 C   0  0  0  0  0  0  0  0  0  0  0  0
   -1.4775   -2.0741   -1.8301 C   0  0  0  0  0  0  0  0  0  0  0  0
   -2.8822   -2.0905   -1.7252 C   0  0  0  0  0  0  0  0  0  0  0  0
   -3.6242   -1.5360   -2.7625 C   0  0  0  0  0  0  0  0  0  0  0  0
   -2.9703   -1.0266   -3.9023 C   0  0  0  0  0  0  0  0  0  0  0  0
   -3.6622   -0.4511   -4.9408 O   0  0  0  0  0  0  0  0  0  0  0  0
   -5.0922   -1.4884   -2.6688 C   0  0  0  0  0  0  0  0  0  0  0  0
   -5.7368   -0.9828   -3.5856 O   0  0  0  0  0  0  0  0  0  0  0  0
   -5.7826   -2.0313   -1.4885 C   0  0  0  0  0  0  0  0  0  0  0  0
   -5.0664   -2.6326   -0.4515 C   0  0  0  0  0  0  0  0  0  0  0  0
   -3.5834   -2.7449   -0.5780 C   0  0  0  0  0  0  0  0  0  0  0  0
   -2.9429   -3.4282    0.2117 O   0  0  0  0  0  0  0  0  0  0  0  0
   -5.7752   -3.1501    0.6599 C   0  0  0  0  0  0  0  0  0  0  0  0
   -7.1749   -3.0509    0.6926 C   0  0  0  0  0  0  0  0  0  0  0  0
   -7.8744   -2.4494   -0.3517 C   0  0  0  0  0  0  0  0  0  0  0  0
   -7.1811   -1.9370   -1.4404 C   0  0  0  0  0  0  0  0  0  0  0  0
   -5.0512   -3.7214    1.6705 O   0  0  0  0  0  0  0  0  0  0  0  0
   -5.7367   -4.2757    2.7844 C   0  0  0  0  0  0  0  0  0  0  0  0
   -0.7197   -2.5067   -0.7779 O   0  0  0  0  0  0  0  0  0  0  0  0
    1.2197   -0.1082   -6.5637 C   0  0  0  0  0  0  0  0  0  0  0  0
    1.7979    0.9590   -6.3284 O   0  0  0  0  0  0  0  0  0  0  0  0
    1.1161   -0.6236   -7.9979 C   0  0  0  0  0  0  0  0  0  0  0  0
    1.8585    0.1828   -8.9053 O   0  0  0  0  0  0  0  0  0  0  0  0
    0.6367   -2.3062   -5.8593 O   0  0  0  0  0  0  0  0  0  0  0  0
    3.5356   -3.6962    0.2291 N   0  0  0  0  0  0  0  0  0  0  0  0
    4.3883   -5.6930   -1.6400 O   0  0  0  0  0  0  0  0  0  0  0  0
    2.1859   -7.7812   -2.7958 H   0  0  0  0  0  0  0  0  0  0  0  0
    3.5790   -7.1218   -3.6853 H   0  0  0  0  0  0  0  0  0  0  0  0
    1.9877   -7.0776   -4.4168 H   0  0  0  0  0  0  0  0  0  0  0  0
    1.1688   -5.4929   -2.7087 H   0  0  0  0  0  0  0  0  0  0  0  0
    2.5908   -6.1305   -0.7623 H   0  0  0  0  0  0  0  0  0  0  0  0
    1.7427   -3.8181   -0.7971 H   0  0  0  0  0  0  0  0  0  0  0  0
    4.3261   -3.1117   -2.2816 H   0  0  0  0  0  0  0  0  0  0  0  0
    3.1049   -1.9612   -1.7565 H   0  0  0  0  0  0  0  0  0  0  0  0
    2.9153   -2.6828   -4.1929 H   0  0  0  0  0  0  0  0  0  0  0  0
    1.1175   -1.2899   -2.0738 H   0  0  0  0  0  0  0  0  0  0  0  0
    2.3335   -0.7715   -4.2428 H   0  0  0  0  0  0  0  0  0  0  0  0
    1.0817    0.3638   -3.8130 H   0  0  0  0  0  0  0  0  0  0  0  0
   -1.4895   -0.8845   -6.1782 H   0  0  0  0  0  0  0  0  0  0  0  0
   -1.0091    0.5647   -5.2708 H   0  0  0  0  0  0  0  0  0  0  0  0
   -4.6232   -0.4677   -4.7260 H   0  0  0  0  0  0  0  0  0  0  0  0
   -7.7556   -3.4388    1.5247 H   0  0  0  0  0  0  0  0  0  0  0  0
   -8.9595   -2.3830   -0.3157 H   0  0  0  0  0  0  0  0  0  0  0  0
   -7.7352   -1.4718   -2.2545 H   0  0  0  0  0  0  0  0  0  0  0  0
   -4.9884   -4.7006    3.4607 H   0  0  0  0  0  0  0  0  0  0  0  0
   -6.4041   -5.0875    2.4769 H   0  0  0  0  0  0  0  0  0  0  0  0
   -6.2810   -3.5019    3.3355 H   0  0  0  0  0  0  0  0  0  0  0  0
   -0.0286   -3.0848   -1.1348 H   0  0  0  0  0  0  0  0  0  0  0  0
    0.0687   -0.6084   -8.3046 H   0  0  0  0  0  0  0  0  0  0  0  0
    1.5107   -1.6405   -8.0624 H   0  0  0  0  0  0  0  0  0  0  0  0
    2.0528    1.0178   -8.4347 H   0  0  0  0  0  0  0  0  0  0  0  0
    0.4319   -2.8852   -5.0973 H   0  0  0  0  0  0  0  0  0  0  0  0
    4.4966   -4.0213    0.1022 H   0  0  0  0  0  0  0  0  0  0  0  0
    3.1687   -4.2827    0.9809 H   0  0  0  0  0  0  0  0  0  0  0  0
    4.6601   -5.3543   -2.5139 H   0  0  0  0  0  0  0  0  0  0  0  0
  1 40  1  0  0  0  0
  1 41  1  0  0  0  0
  1 42  1  0  0  0  0
  2  3  1  0  0  0  0
  2  7  1  0  0  0  0
  2  1  1  0  0  0  0
  2 43  1  1  0  0  0
  3  4  1  0  0  0  0
  3 39  1  0  0  0  0
  3 44  1  1  0  0  0
  4  5  1  0  0  0  0
  4 38  1  0  0  0  0
  4 45  1  1  0  0  0
  5  6  1  0  0  0  0
  5 46  1  0  0  0  0
  5 47  1  0  0  0  0
  6  7  1  0  0  0  0
  6  8  1  0  0  0  0
  6 48  1  6  0  0  0
  9 10  1  0  0  0  0
  9 14  1  0  0  0  0
  9  8  1  0  0  0  0
  9 49  1  1  0  0  0
 10 11  1  0  0  0  0
 10 50  1  0  0  0  0
 10 51  1  0  0  0  0
 11 12  1  0  0  0  0
 11 33  1  6  0  0  0
 11 37  1  0  0  0  0
 12 13  1  0  0  0  0
 12 52  1  0  0  0  0
 12 53  1  0  0  0  0
 13 14  2  0  0  0  0
 13 18  1  0  0  0  0
 14 15  1  0  0  0  0
 15 16  2  0  0  0  0
 15 32  1  0  0  0  0
 16 17  1  0  0  0  0
 16 24  1  0  0  0  0
 17 18  2  0  0  0  0
 17 20  1  0  0  0  0
 18 19  1  0  0  0  0
 19 54  1  0  0  0  0
 20 21  2  0  0  0  0
 20 22  1  0  0  0  0
 22 23  2  0  0  0  0
 22 29  1  0  0  0  0
 23 24  1  0  0  0  0
 23 26  1  0  0  0  0
 24 25  2  0  0  0  0
 26 27  2  0  0  0  0
 26 30  1  0  0  0  0
 27 28  1  0  0  0  0
 27 55  1  0  0  0  0
 28 29  2  0  0  0  0
 28 56  1  0  0  0  0
 29 57  1  0  0  0  0
 30 31  1  0  0  0  0
 31 58  1  0  0  0  0
 31 59  1  0  0  0  0
 31 60  1  0  0  0  0
 32 61  1  0  0  0  0
 33 34  2  0  0  0  0
 33 35  1  0  0  0  0
 35 36  1  0  0  0  0
 35 62  1  0  0  0  0
 35 63  1  0  0  0  0
 36 64  1  0  0  0  0
 37 65  1  0  0  0  0
 38 66  1  0  0  0  0
 38 67  1  0  0  0  0
 39 68  1  0  0  0  0
M  END
$$$$
Target_lig_497
 OpenBabel04172516563D

164171  0  0  1  0  0  0  0  0999 V2000
   -2.2694    5.5790    4.1172 C   0  0  0  0  0  0  0  0  0  0  0  0
   -1.9973    4.6195    5.1110 C   0  0  0  0  0  0  0  0  0  0  0  0
   -2.4356    3.2896    5.0026 C   0  0  0  0  0  0  0  0  0  0  0  0
   -3.2474    3.0022    3.8744 C   0  0  0  0  0  0  0  0  0  0  0  0
   -3.5095    3.9600    2.8679 C   0  0  0  0  0  0  0  0  0  0  0  0
   -2.9926    5.2452    2.9663 C   0  0  0  0  0  0  0  0  0  0  0  0
   -1.9857    2.1082    5.9213 C   0  0  0  0  0  0  0  0  0  0  0  0
   -1.2472    2.3003    7.3052 C   0  0  2  0  0  0  0  0  0  0  0  0
   -0.6236    1.1199    8.0956 N   0  0  0  0  0  0  0  0  0  0  0  0
   -1.3003   -0.0165    8.5162 C   0  0  0  0  0  0  0  0  0  0  0  0
   -2.4572   -0.1584    8.0959 O   0  0  0  0  0  0  0  0  0  0  0  0
   -0.5901   -1.2406    9.4335 C   0  0  2  0  0  0  0  0  0  0  0  0
    0.4120   -0.9457   10.5768 C   0  0  0  0  0  0  0  0  0  0  0  0
    0.9325   -2.3098   11.0450 C   0  0  0  0  0  0  0  0  0  0  0  0
    1.0618   -3.0493    9.7315 C   0  0  0  0  0  0  0  0  0  0  0  0
    0.0449   -2.4798    8.8616 N   0  0  0  0  0  0  0  0  0  0  0  0
   -0.1180   -3.1227    7.6514 C   0  0  0  0  0  0  0  0  0  0  0  0
    0.3829   -4.2183    7.3897 O   0  0  0  0  0  0  0  0  0  0  0  0
   -0.8082   -2.2947    6.6093 C   0  0  1  0  0  0  0  0  0  0  0  0
    0.1777   -1.1073    6.1059 N   0  0  0  0  0  0  0  0  0  0  0  0
    1.3723   -0.7038    6.8437 C   0  0  0  0  0  0  0  0  0  0  0  0
    1.9897   -1.5283    7.5135 O   0  0  0  0  0  0  0  0  0  0  0  0
    1.9935    0.7659    6.9272 C   0  0  0  0  0  0  0  0  0  0  0  0
    2.4731    1.3551    5.7602 C   0  0  0  0  0  0  0  0  0  0  0  0
    3.6634    0.8064    5.2703 C   0  0  0  0  0  0  0  0  0  0  0  0
    3.9246    0.7410    3.9047 C   0  0  0  0  0  0  0  0  0  0  0  0
    4.6088   -0.3768    3.4499 C   0  0  0  0  0  0  0  0  0  0  0  0
    5.1410   -1.2840    4.3687 C   0  0  0  0  0  0  0  0  0  0  0  0
    5.1592   -0.9750    5.7306 C   0  0  0  0  0  0  0  0  0  0  0  0
    4.4380    0.1064    6.2000 C   0  0  0  0  0  0  0  0  0  0  0  0
    4.2863    0.3750    7.5060 N   0  0  0  0  0  0  0  0  0  0  0  0
    3.0427    0.7813    7.8668 C   0  0  0  0  0  0  0  0  0  0  0  0
    2.8640    1.3383    9.2545 C   0  0  0  0  0  0  0  0  0  0  0  0
    3.8654    0.8207   10.2876 C   0  0  0  0  0  0  0  0  0  0  0  0
   -1.5693   -3.2881    5.6554 C   0  0  0  0  0  0  0  0  0  0  0  0
   -2.7569   -4.7337    6.4970 S   0  0  0  0  0  0  0  0  0  0  0  0
   -4.4041   -3.9861    7.5448 S   0  0  0  0  0  0  0  0  0  0  0  0
   -5.7080   -5.4288    7.9733 C   0  0  0  0  0  0  0  0  0  0  0  0
   -5.3112   -6.4824    9.0561 C   0  0  2  0  0  0  0  0  0  0  0  0
   -6.3683   -7.6291    9.4035 C   0  0  0  0  0  0  0  0  0  0  0  0
   -7.4952   -7.6118    8.8937 O   0  0  0  0  0  0  0  0  0  0  0  0
   -6.0377   -8.6717   10.2946 N   0  0  0  0  0  0  0  0  0  0  0  0
   -4.7414   -8.8836   10.9301 C   0  0  0  0  0  0  0  0  0  0  0  0
   -4.5063  -10.3783   10.9853 C   0  0  0  0  0  0  0  0  0  0  0  0
   -5.8972  -10.9572   11.0637 C   0  0  0  0  0  0  0  0  0  0  0  0
   -6.8276   -9.9255   10.3692 C   0  0  1  0  0  0  0  0  0  0  0  0
   -8.2158  -10.0247   11.0782 C   0  0  0  0  0  0  0  0  0  0  0  0
   -8.6519  -11.1196   11.4571 O   0  0  0  0  0  0  0  0  0  0  0  0
   -9.0354   -8.9213   11.0773 N   0  0  0  0  0  0  0  0  0  0  0  0
  -10.4321   -8.9821   11.5849 C   0  0  2  0  0  0  0  0  0  0  0  0
  -11.4106   -9.4371   10.4774 C   0  0  0  0  0  0  0  0  0  0  0  0
  -12.4341   -8.8154   10.1971 O   0  0  0  0  0  0  0  0  0  0  0  0
  -11.0966  -10.6384    9.8835 N   0  0  0  0  0  0  0  0  0  0  0  0
  -11.9188  -11.2058    8.8383 C   0  0  0  0  0  0  0  0  0  0  0  0
  -12.5638  -12.5272    9.2456 C   0  0  0  0  0  0  0  0  0  0  0  0
  -13.4678  -12.3831   10.4685 C   0  0  0  0  0  0  0  0  0  0  0  0
  -14.0831  -13.6678   10.7939 N   0  0  0  0  0  0  0  0  0  0  0  0
  -10.9559   -7.6365   12.1523 C   0  0  0  0  0  0  0  0  0  0  0  0
  -10.0472   -6.9939   13.1704 C   0  0  0  0  0  0  0  0  0  0  0  0
   -9.5875   -5.6915   12.9437 C   0  0  0  0  0  0  0  0  0  0  0  0
   -8.5087   -5.2006   13.6708 C   0  0  0  0  0  0  0  0  0  0  0  0
   -7.9248   -5.9904   14.6591 C   0  0  0  0  0  0  0  0  0  0  0  0
   -8.4894   -7.2160   15.0040 C   0  0  0  0  0  0  0  0  0  0  0  0
   -9.5715   -7.7046   14.2792 C   0  0  0  0  0  0  0  0  0  0  0  0
   -5.0207   -5.7743   10.3032 N   0  0  0  0  0  0  0  0  0  0  0  0
   -3.7940   -5.9179   10.8626 C   0  0  0  0  0  0  0  0  0  0  0  0
   -2.9544   -6.6821   10.3973 O   0  0  0  0  0  0  0  0  0  0  0  0
   -3.4282   -5.0664   11.9996 C   0  0  0  0  0  0  0  0  0  0  0  0
   -2.1421   -4.5723   11.9834 C   0  0  0  0  0  0  0  0  0  0  0  0
   -1.6184   -3.8056   12.9750 N   0  0  0  0  0  0  0  0  0  0  0  0
   -2.3900   -3.5042   14.0172 C   0  0  0  0  0  0  0  0  0  0  0  0
   -3.7168   -3.9476   14.1094 C   0  0  0  0  0  0  0  0  0  0  0  0
   -4.2594   -4.7210   13.0478 C   0  0  0  0  0  0  0  0  0  0  0  0
   -4.4526   -3.6101   15.2650 C   0  0  0  0  0  0  0  0  0  0  0  0
   -3.8842   -2.8541   16.2899 C   0  0  0  0  0  0  0  0  0  0  0  0
   -2.5763   -2.4193   16.1757 C   0  0  0  0  0  0  0  0  0  0  0  0
   -1.8375   -2.7301   15.0129 C   0  0  0  0  0  0  0  0  0  0  0  0
   -1.2555   -4.7773   10.7941 C   0  0  0  0  0  0  0  0  0  0  0  0
   -0.1358   -5.7698   11.0671 C   0  0  0  0  0  0  0  0  0  0  0  0
   -2.0274    2.9200    8.4538 C   0  0  0  0  0  0  0  0  0  0  0  0
   -1.4902    3.0659    9.5577 O   0  0  0  0  0  0  0  0  0  0  0  0
   -3.3398    3.2303    8.2316 N   0  0  0  0  0  0  0  0  0  0  0  0
   -4.1902    3.5181    9.3586 C   0  0  0  0  0  0  0  0  0  0  0  0
   -5.6127    3.7507    8.8907 C   0  0  0  0  0  0  0  0  0  0  0  0
   -6.4956    4.1314   10.0667 C   0  0  0  0  0  0  0  0  0  0  0  0
   -7.8489    4.3986    9.5985 N   0  0  0  0  0  0  0  0  0  0  0  0
   -1.8722    6.5951    4.1820 H   0  0  0  0  0  0  0  0  0  0  0  0
   -1.4289    4.9512    5.9744 H   0  0  0  0  0  0  0  0  0  0  0  0
   -3.6714    2.0098    3.7397 H   0  0  0  0  0  0  0  0  0  0  0  0
   -4.1054    3.6798    1.9953 H   0  0  0  0  0  0  0  0  0  0  0  0
   -3.1695    5.9664    2.1678 H   0  0  0  0  0  0  0  0  0  0  0  0
   -1.2825    1.5679    5.2760 H   0  0  0  0  0  0  0  0  0  0  0  0
   -2.8569    1.4562    6.0510 H   0  0  0  0  0  0  0  0  0  0  0  0
   -0.4007    2.9736    7.1194 H   0  0  0  0  0  0  0  0  0  0  0  0
   -0.1725    1.5299    8.9077 H   0  0  0  0  0  0  0  0  0  0  0  0
   -1.4826   -1.6408    9.9389 H   0  0  0  0  0  0  0  0  0  0  0  0
   -0.0023   -0.3642   11.3998 H   0  0  0  0  0  0  0  0  0  0  0  0
    1.3040   -0.4720   10.2040 H   0  0  0  0  0  0  0  0  0  0  0  0
    0.2164   -2.7462   11.7399 H   0  0  0  0  0  0  0  0  0  0  0  0
    1.8839   -2.3118   11.5839 H   0  0  0  0  0  0  0  0  0  0  0  0
    0.9227   -4.1168    9.7874 H   0  0  0  0  0  0  0  0  0  0  0  0
    2.0587   -2.9632    9.3016 H   0  0  0  0  0  0  0  0  0  0  0  0
   -1.6436   -1.8036    7.0742 H   0  0  0  0  0  0  0  0  0  0  0  0
   -0.3168   -0.3349    5.6878 H   0  0  0  0  0  0  0  0  0  0  0  0
    2.5572    2.4609    5.7929 H   0  0  0  0  0  0  0  0  0  0  0  0
    3.4521    1.4209    3.2030 H   0  0  0  0  0  0  0  0  0  0  0  0
    4.6273   -0.5993    2.3869 H   0  0  0  0  0  0  0  0  0  0  0  0
    5.4988   -2.2537    4.0355 H   0  0  0  0  0  0  0  0  0  0  0  0
    5.5725   -1.6738    6.4534 H   0  0  0  0  0  0  0  0  0  0  0  0
    1.8542    1.1231    9.5838 H   0  0  0  0  0  0  0  0  0  0  0  0
    2.9088    2.4318    9.2293 H   0  0  0  0  0  0  0  0  0  0  0  0
    4.0553   -0.2538   10.1872 H   0  0  0  0  0  0  0  0  0  0  0  0
    3.4999    1.0019   11.3048 H   0  0  0  0  0  0  0  0  0  0  0  0
    4.8237    1.3428   10.1873 H   0  0  0  0  0  0  0  0  0  0  0  0
   -0.8429   -3.9000    5.1079 H   0  0  0  0  0  0  0  0  0  0  0  0
   -2.1992   -2.7670    4.9297 H   0  0  0  0  0  0  0  0  0  0  0  0
   -6.0543   -5.8828    7.0399 H   0  0  0  0  0  0  0  0  0  0  0  0
   -6.5655   -4.8630    8.3699 H   0  0  0  0  0  0  0  0  0  0  0  0
   -4.4347   -7.0073    8.6579 H   0  0  0  0  0  0  0  0  0  0  0  0
   -4.7803   -8.4566   11.9385 H   0  0  0  0  0  0  0  0  0  0  0  0
   -3.9350   -8.4739   10.3462 H   0  0  0  0  0  0  0  0  0  0  0  0
   -3.8712  -10.6692   11.8310 H   0  0  0  0  0  0  0  0  0  0  0  0
   -4.0024  -10.7158   10.0718 H   0  0  0  0  0  0  0  0  0  0  0  0
   -6.1580  -11.1146   12.1180 H   0  0  0  0  0  0  0  0  0  0  0  0
   -5.9397  -11.9359   10.5730 H   0  0  0  0  0  0  0  0  0  0  0  0
   -6.9976  -10.2409    9.3333 H   0  0  0  0  0  0  0  0  0  0  0  0
   -8.7788   -8.1732   10.4373 H   0  0  0  0  0  0  0  0  0  0  0  0
  -10.4765   -9.7418   12.3772 H   0  0  0  0  0  0  0  0  0  0  0  0
  -10.2997  -11.1640   10.2428 H   0  0  0  0  0  0  0  0  0  0  0  0
  -11.2678  -11.3621    7.9732 H   0  0  0  0  0  0  0  0  0  0  0  0
  -12.6963  -10.4943    8.5360 H   0  0  0  0  0  0  0  0  0  0  0  0
  -11.7809  -13.2687    9.4467 H   0  0  0  0  0  0  0  0  0  0  0  0
  -13.1493  -12.9003    8.3951 H   0  0  0  0  0  0  0  0  0  0  0  0
  -14.2529  -11.6427   10.2806 H   0  0  0  0  0  0  0  0  0  0  0  0
  -12.8908  -12.0480   11.3363 H   0  0  0  0  0  0  0  0  0  0  0  0
  -14.6879  -13.9574   10.0271 H   0  0  0  0  0  0  0  0  0  0  0  0
  -14.6872  -13.5483   11.6061 H   0  0  0  0  0  0  0  0  0  0  0  0
  -11.9499   -7.7742   12.5988 H   0  0  0  0  0  0  0  0  0  0  0  0
  -11.0922   -6.9384   11.3150 H   0  0  0  0  0  0  0  0  0  0  0  0
  -10.0304   -5.0779   12.1614 H   0  0  0  0  0  0  0  0  0  0  0  0
   -8.1087   -4.2180   13.4401 H   0  0  0  0  0  0  0  0  0  0  0  0
   -7.0274   -5.6564   15.1655 H   0  0  0  0  0  0  0  0  0  0  0  0
   -8.0586   -7.8140   15.8011 H   0  0  0  0  0  0  0  0  0  0  0  0
   -9.9932   -8.6720   14.5419 H   0  0  0  0  0  0  0  0  0  0  0  0
   -5.6920   -5.1136   10.6696 H   0  0  0  0  0  0  0  0  0  0  0  0
   -5.2766   -5.0717   13.0779 H   0  0  0  0  0  0  0  0  0  0  0  0
   -5.4758   -3.9564   15.3671 H   0  0  0  0  0  0  0  0  0  0  0  0
   -4.4387   -2.6755   17.2060 H   0  0  0  0  0  0  0  0  0  0  0  0
   -2.1161   -1.8221   16.9586 H   0  0  0  0  0  0  0  0  0  0  0  0
   -0.8257   -2.3450   14.9152 H   0  0  0  0  0  0  0  0  0  0  0  0
   -0.9422   -3.7706   10.6117 H   0  0  0  0  0  0  0  0  0  0  0  0
   -1.7475   -4.9762    9.8381 H   0  0  0  0  0  0  0  0  0  0  0  0
    0.5357   -5.3967   11.8482 H   0  0  0  0  0  0  0  0  0  0  0  0
    0.4606   -5.9602   10.1680 H   0  0  0  0  0  0  0  0  0  0  0  0
   -0.5238   -6.7400   11.3814 H   0  0  0  0  0  0  0  0  0  0  0  0
   -3.7917    2.9164    7.3813 H   0  0  0  0  0  0  0  0  0  0  0  0
   -3.7855    4.3994    9.8694 H   0  0  0  0  0  0  0  0  0  0  0  0
   -4.1380    2.6739   10.0582 H   0  0  0  0  0  0  0  0  0  0  0  0
   -5.9904    2.8389    8.4082 H   0  0  0  0  0  0  0  0  0  0  0  0
   -5.6197    4.5370    8.1252 H   0  0  0  0  0  0  0  0  0  0  0  0
   -6.0942    5.0177   10.5704 H   0  0  0  0  0  0  0  0  0  0  0  0
   -6.5186    3.3139   10.7949 H   0  0  0  0  0  0  0  0  0  0  0  0
   -7.8405    5.2316    9.0086 H   0  0  0  0  0  0  0  0  0  0  0  0
   -8.4417    4.6271   10.3951 H   0  0  0  0  0  0  0  0  0  0  0  0
  1  2  1  0  0  0  0
  1  6  2  0  0  0  0
  1 87  1  0  0  0  0
  2  3  2  0  0  0  0
  2 88  1  0  0  0  0
  3  4  1  0  0  0  0
  3  7  1  0  0  0  0
  4  5  2  0  0  0  0
  4 89  1  0  0  0  0
  5  6  1  0  0  0  0
  5 90  1  0  0  0  0
  6 91  1  0  0  0  0
  7 92  1  0  0  0  0
  7 93  1  0  0  0  0
  8 80  1  0  0  0  0
  8  9  1  0  0  0  0
  8  7  1  0  0  0  0
  8 94  1  6  0  0  0
  9 10  1  0  0  0  0
  9 95  1  0  0  0  0
 10 11  2  0  0  0  0
 10 12  1  0  0  0  0
 12 13  1  0  0  0  0
 12 16  1  0  0  0  0
 12 96  1  1  0  0  0
 13 14  1  0  0  0  0
 13 97  1  0  0  0  0
 13 98  1  0  0  0  0
 14 15  1  0  0  0  0
 14 99  1  0  0  0  0
 14100  1  0  0  0  0
 15 16  1  0  0  0  0
 15101  1  0  0  0  0
 15102  1  0  0  0  0
 16 17  1  0  0  0  0
 17 18  2  0  0  0  0
 17 19  1  0  0  0  0
 19 20  1  0  0  0  0
 19 35  1  0  0  0  0
 19103  1  1  0  0  0
 20 21  1  0  0  0  0
 20104  1  0  0  0  0
 21 22  2  0  0  0  0
 21 23  1  0  0  0  0
 23 24  1  0  0  0  0
 23 32  2  0  0  0  0
 24 25  2  0  0  0  0
 24105  1  0  0  0  0
 25 26  1  0  0  0  0
 25 30  1  0  0  0  0
 26 27  2  0  0  0  0
 26106  1  0  0  0  0
 27 28  1  0  0  0  0
 27107  1  0  0  0  0
 28 29  2  0  0  0  0
 28108  1  0  0  0  0
 29 30  1  0  0  0  0
 29109  1  0  0  0  0
 30 31  2  0  0  0  0
 31 32  1  0  0  0  0
 32 33  1  0  0  0  0
 33 34  1  0  0  0  0
 33110  1  0  0  0  0
 33111  1  0  0  0  0
 34112  1  0  0  0  0
 34113  1  0  0  0  0
 34114  1  0  0  0  0
 35 36  1  0  0  0  0
 35115  1  0  0  0  0
 35116  1  0  0  0  0
 36 37  1  0  0  0  0
 37 38  1  0  0  0  0
 38117  1  0  0  0  0
 38118  1  0  0  0  0
 39 65  1  0  0  0  0
 39 40  1  0  0  0  0
 39 38  1  0  0  0  0
 39119  1  6  0  0  0
 40 41  2  0  0  0  0
 40 42  1  0  0  0  0
 42 43  1  0  0  0  0
 42 46  1  0  0  0  0
 43 44  1  0  0  0  0
 43120  1  0  0  0  0
 43121  1  0  0  0  0
 44 45  1  0  0  0  0
 44122  1  0  0  0  0
 44123  1  0  0  0  0
 45 46  1  0  0  0  0
 45124  1  0  0  0  0
 45125  1  0  0  0  0
 46 47  1  0  0  0  0
 46126  1  6  0  0  0
 47 48  2  0  0  0  0
 47 49  1  0  0  0  0
 49127  1  0  0  0  0
 50 58  1  0  0  0  0
 50 51  1  0  0  0  0
 50 49  1  0  0  0  0
 50128  1  1  0  0  0
 51 52  2  0  0  0  0
 51 53  1  0  0  0  0
 53 54  1  0  0  0  0
 53129  1  0  0  0  0
 54 55  1  0  0  0  0
 54130  1  0  0  0  0
 54131  1  0  0  0  0
 55 56  1  0  0  0  0
 55132  1  0  0  0  0
 55133  1  0  0  0  0
 56 57  1  0  0  0  0
 56134  1  0  0  0  0
 56135  1  0  0  0  0
 57136  1  0  0  0  0
 57137  1  0  0  0  0
 58 59  1  0  0  0  0
 58138  1  0  0  0  0
 58139  1  0  0  0  0
 59 60  1  0  0  0  0
 59 64  2  0  0  0  0
 60 61  2  0  0  0  0
 60140  1  0  0  0  0
 61 62  1  0  0  0  0
 61141  1  0  0  0  0
 62 63  2  0  0  0  0
 62142  1  0  0  0  0
 63 64  1  0  0  0  0
 63143  1  0  0  0  0
 64144  1  0  0  0  0
 65 66  1  0  0  0  0
 65145  1  0  0  0  0
 66 67  2  0  0  0  0
 66 68  1  0  0  0  0
 68 69  1  0  0  0  0
 68 73  2  0  0  0  0
 69 70  2  0  0  0  0
 69 78  1  0  0  0  0
 70 71  1  0  0  0  0
 71 72  1  0  0  0  0
 71 77  2  0  0  0  0
 72 73  1  0  0  0  0
 72 74  2  0  0  0  0
 73146  1  0  0  0  0
 74 75  1  0  0  0  0
 74147  1  0  0  0  0
 75 76  2  0  0  0  0
 75148  1  0  0  0  0
 76 77  1  0  0  0  0
 76149  1  0  0  0  0
 77150  1  0  0  0  0
 78 79  1  0  0  0  0
 78151  1  0  0  0  0
 78152  1  0  0  0  0
 79153  1  0  0  0  0
 79154  1  0  0  0  0
 79155  1  0  0  0  0
 80 81  2  0  0  0  0
 80 82  1  0  0  0  0
 82 83  1  0  0  0  0
 82156  1  0  0  0  0
 83 84  1  0  0  0  0
 83157  1  0  0  0  0
 83158  1  0  0  0  0
 84 85  1  0  0  0  0
 84159  1  0  0  0  0
 84160  1  0  0  0  0
 85 86  1  0  0  0  0
 85161  1  0  0  0  0
 85162  1  0  0  0  0
 86163  1  0  0  0  0
 86164  1  0  0  0  0
M  END
$$$$
Target_lig_498
 OpenBabel04172516563D

 43 46  0  0  0  0  0  0  0  0999 V2000
    3.2565    0.6612   -0.0522 C   0  0  0  0  0  0  0  0  0  0  0  0
    1.8195    0.2048   -0.0867 C   0  0  0  0  0  0  0  0  0  0  0  0
    0.8846    1.1028   -0.0915 N   0  0  0  0  0  0  0  0  0  0  0  0
   -0.3973    0.6418   -0.0897 C   0  0  0  0  0  0  0  0  0  0  0  0
   -1.5126    1.3342   -0.0985 N   0  0  0  0  0  0  0  0  0  0  0  0
   -2.5009    0.3869   -0.0739 C   0  0  0  0  0  0  0  0  0  0  0  0
   -2.0594   -0.8759   -0.0543 N   0  0  0  0  0  0  0  0  0  0  0  0
   -0.7043   -0.7283   -0.0625 N   0  0  0  0  0  0  0  0  0  0  0  0
    0.3261   -1.7113   -0.0638 C   0  0  0  0  0  0  0  0  0  0  0  0
    1.5987   -1.2700   -0.0952 C   0  0  0  0  0  0  0  0  0  0  0  0
    0.0358   -3.0914    0.0064 N   0  0  0  0  0  0  0  0  0  0  0  0
   -1.2039   -3.5897    0.6494 C   0  0  0  0  0  0  0  0  0  0  0  0
   -0.9813   -5.0109    1.2059 C   0  0  0  0  0  0  0  0  0  0  0  0
   -0.5751   -5.9592    0.1480 N   0  0  0  0  0  0  0  0  0  0  0  0
    0.6622   -5.4637   -0.4916 C   0  0  0  0  0  0  0  0  0  0  0  0
    0.5138   -4.0250   -1.0456 C   0  0  0  0  0  0  0  0  0  0  0  0
   -0.3888   -7.2965    0.7021 C   0  0  0  0  0  0  0  0  0  0  0  0
   -3.9146    0.7560   -0.0667 C   0  0  0  0  0  0  0  0  0  0  0  0
   -4.2875    2.1074   -0.1435 C   0  0  0  0  0  0  0  0  0  0  0  0
   -5.6352    2.4785   -0.1413 C   0  0  0  0  0  0  0  0  0  0  0  0
   -6.6211    1.4983   -0.0582 C   0  0  0  0  0  0  0  0  0  0  0  0
   -6.2712    0.1519    0.0235 C   0  0  0  0  0  0  0  0  0  0  0  0
   -4.9217   -0.2179    0.0178 C   0  0  0  0  0  0  0  0  0  0  0  0
   -8.2802    1.9530   -0.0582 Cl  0  0  0  0  0  0  0  0  0  0  0  0
    3.3118    1.7528   -0.0195 H   0  0  0  0  0  0  0  0  0  0  0  0
    3.7751    0.3028   -0.9446 H   0  0  0  0  0  0  0  0  0  0  0  0
    3.7447    0.2566    0.8394 H   0  0  0  0  0  0  0  0  0  0  0  0
    2.4542   -1.9293   -0.0640 H   0  0  0  0  0  0  0  0  0  0  0  0
   -2.0277   -3.5955   -0.0748 H   0  0  0  0  0  0  0  0  0  0  0  0
   -1.4808   -2.9460    1.4922 H   0  0  0  0  0  0  0  0  0  0  0  0
   -1.9142   -5.3483    1.6713 H   0  0  0  0  0  0  0  0  0  0  0  0
   -0.2152   -4.9695    1.9932 H   0  0  0  0  0  0  0  0  0  0  0  0
    0.9352   -6.1259   -1.3221 H   0  0  0  0  0  0  0  0  0  0  0  0
    1.4932   -5.4792    0.2267 H   0  0  0  0  0  0  0  0  0  0  0  0
   -0.1980   -4.0187   -1.8812 H   0  0  0  0  0  0  0  0  0  0  0  0
    1.4837   -3.7053   -1.4440 H   0  0  0  0  0  0  0  0  0  0  0  0
   -1.3216   -7.6539    1.1527 H   0  0  0  0  0  0  0  0  0  0  0  0
    0.3956   -7.3270    1.4667 H   0  0  0  0  0  0  0  0  0  0  0  0
   -0.1302   -8.0072   -0.0900 H   0  0  0  0  0  0  0  0  0  0  0  0
   -3.5245    2.8820   -0.2074 H   0  0  0  0  0  0  0  0  0  0  0  0
   -5.9031    3.5295   -0.2048 H   0  0  0  0  0  0  0  0  0  0  0  0
   -7.0392   -0.6139    0.0904 H   0  0  0  0  0  0  0  0  0  0  0  0
   -4.6613   -1.2730    0.0798 H   0  0  0  0  0  0  0  0  0  0  0  0
  1  2  1  0  0  0  0
  1 25  1  0  0  0  0
  1 26  1  0  0  0  0
  1 27  1  0  0  0  0
  2  3  2  0  0  0  0
  2 10  1  0  0  0  0
  3  4  1  0  0  0  0
  4  5  2  0  0  0  0
  4  8  1  0  0  0  0
  5  6  1  0  0  0  0
  6  7  2  0  0  0  0
  6 18  1  0  0  0  0
  7  8  1  0  0  0  0
  8  9  1  0  0  0  0
  9 10  2  0  0  0  0
  9 11  1  0  0  0  0
 10 28  1  0  0  0  0
 11 12  1  0  0  0  0
 11 16  1  0  0  0  0
 12 13  1  0  0  0  0
 12 29  1  0  0  0  0
 12 30  1  0  0  0  0
 13 14  1  0  0  0  0
 13 31  1  0  0  0  0
 13 32  1  0  0  0  0
 14 15  1  0  0  0  0
 14 17  1  0  0  0  0
 15 16  1  0  0  0  0
 15 33  1  0  0  0  0
 15 34  1  0  0  0  0
 16 35  1  0  0  0  0
 16 36  1  0  0  0  0
 17 37  1  0  0  0  0
 17 38  1  0  0  0  0
 17 39  1  0  0  0  0
 18 19  2  0  0  0  0
 18 23  1  0  0  0  0
 19 20  1  0  0  0  0
 19 40  1  0  0  0  0
 20 21  2  0  0  0  0
 20 41  1  0  0  0  0
 21 22  1  0  0  0  0
 21 24  1  0  0  0  0
 22 23  2  0  0  0  0
 22 42  1  0  0  0  0
 23 43  1  0  0  0  0
M  END
$$$$
Target_lig_499
 OpenBabel04172516563D

 41 44  0  0  1  0  0  0  0  0999 V2000
    0.9354    0.1171   -0.0033 C   0  0  0  0  0  0  0  0  0  0  0  0
    2.4360    0.1890    0.0372 C   0  0  0  0  0  0  0  0  0  0  0  0
    3.1522    1.3376   -0.0018 C   0  0  0  0  0  0  0  0  0  0  0  0
    4.6906    1.3450    0.0337 C   0  0  0  0  0  0  0  0  0  0  0  0
    5.3608    2.3693    0.0082 O   0  0  0  0  0  0  0  0  0  0  0  0
    5.2972    0.0188    0.0927 C   0  0  0  0  0  0  0  0  0  0  0  0
    4.5154   -1.1241    0.1537 C   0  0  0  0  0  0  0  0  0  0  0  0
    3.0902   -1.1514    0.1252 C   0  0  0  0  0  0  0  0  0  0  0  0
    2.4307   -2.1842    0.1513 O   0  0  0  0  0  0  0  0  0  0  0  0
    5.3491   -2.1818    0.1943 N   0  0  0  0  0  0  0  0  0  0  0  0
    5.1567   -3.6049   -0.0170 C   0  0  0  0  0  0  0  0  0  0  0  0
    6.5544   -4.0801   -0.3766 C   0  0  1  0  0  0  0  0  0  0  0  0
    7.5877   -2.9288   -0.1642 C   0  0  1  0  0  0  0  0  0  0  0  0
    6.6440   -1.7738    0.0800 C   0  0  0  0  0  0  0  0  0  0  0  0
    6.6895   -0.3984    0.0345 C   0  0  0  0  0  0  0  0  0  0  0  0
    7.8944    0.4762   -0.0777 C   0  0  0  0  0  0  0  0  0  0  0  0
    7.8841    1.2806   -1.2648 O   0  0  0  0  0  0  0  0  0  0  0  0
    8.3832    0.6925   -2.3635 C   0  0  0  0  0  0  0  0  0  0  0  0
    8.8369   -0.4368   -2.4571 O   0  0  0  0  0  0  0  0  0  0  0  0
    8.3223    1.5528   -3.4073 N   0  0  0  0  0  0  0  0  0  0  0  0
    7.5486   -4.1501    0.6570 N   0  0  0  0  0  0  0  0  0  0  0  0
    8.5793   -5.1325    0.3283 C   0  0  0  0  0  0  0  0  0  0  0  0
    2.4074    2.5160   -0.0799 O   0  0  0  0  0  0  0  0  0  0  0  0
    3.0673    3.7709   -0.1281 C   0  0  0  0  0  0  0  0  0  0  0  0
    0.4555    1.0988   -0.0342 H   0  0  0  0  0  0  0  0  0  0  0  0
    0.5573   -0.4010    0.8849 H   0  0  0  0  0  0  0  0  0  0  0  0
    0.6079   -0.4350   -0.8913 H   0  0  0  0  0  0  0  0  0  0  0  0
    4.4519   -3.7490   -0.8383 H   0  0  0  0  0  0  0  0  0  0  0  0
    4.7887   -4.0416    0.9166 H   0  0  0  0  0  0  0  0  0  0  0  0
    6.6138   -4.6763   -1.2751 H   0  0  0  0  0  0  0  0  0  0  0  0
    8.4902   -2.7681   -0.7351 H   0  0  0  0  0  0  0  0  0  0  0  0
    8.8255   -0.1011   -0.0079 H   0  0  0  0  0  0  0  0  0  0  0  0
    7.9099    1.1696    0.7734 H   0  0  0  0  0  0  0  0  0  0  0  0
    7.9437    2.4769   -3.2669 H   0  0  0  0  0  0  0  0  0  0  0  0
    8.6489    1.2552   -4.3130 H   0  0  0  0  0  0  0  0  0  0  0  0
    9.4815   -4.9462    0.9177 H   0  0  0  0  0  0  0  0  0  0  0  0
    8.8634   -5.1467   -0.7318 H   0  0  0  0  0  0  0  0  0  0  0  0
    8.2173   -6.1356    0.5835 H   0  0  0  0  0  0  0  0  0  0  0  0
    2.2931    4.5447   -0.1564 H   0  0  0  0  0  0  0  0  0  0  0  0
    3.6606    3.8674   -1.0418 H   0  0  0  0  0  0  0  0  0  0  0  0
    3.6624    3.9412    0.7732 H   0  0  0  0  0  0  0  0  0  0  0  0
  1  2  1  0  0  0  0
  1 25  1  0  0  0  0
  1 26  1  0  0  0  0
  1 27  1  0  0  0  0
  2  3  2  0  0  0  0
  2  8  1  0  0  0  0
  3  4  1  0  0  0  0
  3 23  1  0  0  0  0
  4  5  2  0  0  0  0
  4  6  1  0  0  0  0
  6  7  2  0  0  0  0
  6 15  1  0  0  0  0
  7  8  1  0  0  0  0
  7 10  1  0  0  0  0
  8  9  2  0  0  0  0
 10 11  1  0  0  0  0
 10 14  1  0  0  0  0
 11 12  1  0  0  0  0
 11 28  1  0  0  0  0
 11 29  1  0  0  0  0
 12 13  1  0  0  0  0
 12 21  1  0  0  0  0
 12 30  1  6  0  0  0
 13 14  1  0  0  0  0
 13 21  1  0  0  0  0
 13 31  1  6  0  0  0
 14 15  2  0  0  0  0
 15 16  1  0  0  0  0
 16 17  1  0  0  0  0
 16 32  1  0  0  0  0
 16 33  1  0  0  0  0
 17 18  1  0  0  0  0
 18 19  2  0  0  0  0
 18 20  1  0  0  0  0
 20 34  1  0  0  0  0
 20 35  1  0  0  0  0
 21 22  1  0  0  0  0
 22 36  1  0  0  0  0
 22 37  1  0  0  0  0
 22 38  1  0  0  0  0
 23 24  1  0  0  0  0
 24 39  1  0  0  0  0
 24 40  1  0  0  0  0
 24 41  1  0  0  0  0
M  END
$$$$
Target_lig_63
 OpenBabel04172516563D

 79 81  0  0  1  0  0  0  0  0999 V2000
    0.9655    1.2085   -0.8505 C   0  0  0  0  0  0  0  0  0  0  0  0
    2.4069    0.7108   -0.8062 C   0  0  3  0  0  0  0  0  0  0  0  0
    2.6078   -0.7597   -0.4452 C   0  0  3  0  0  0  0  0  0  0  0  0
    3.8731   -0.7634    0.4274 C   0  0  3  0  0  0  0  0  0  0  0  0
    4.3350    0.7147    0.4771 C   0  0  3  0  0  0  0  0  0  0  0  0
    3.1560    1.4670    0.1637 O   0  0  0  0  0  0  0  0  0  0  0  0
    5.4121    1.1260   -0.3594 O   0  0  0  0  0  0  0  0  0  0  0  0
    6.0488    2.4317   -0.0855 C   0  0  3  0  0  0  0  0  0  0  0  0
    6.1579    2.9133    1.3848 C   0  0  3  0  0  0  0  0  0  0  0  0
    4.8107    3.4732    1.9189 C   0  0  3  0  0  0  0  0  0  0  0  0
    4.0302    4.4326    0.9889 C   0  0  3  0  0  0  0  0  0  0  0  0
    4.1797    4.1781   -0.5269 C   0  0  3  0  0  0  0  0  0  0  0  0
    5.5201    3.5785   -0.9814 C   0  0  3  0  0  0  0  0  0  0  0  0
    5.4210    3.1059   -2.3395 O   0  0  0  0  0  0  0  0  0  0  0  0
    3.8820    5.3845   -1.2608 O   0  0  0  0  0  0  0  0  0  0  0  0
    4.2967    5.8486    1.3835 N   0  0  0  0  0  0  0  0  0  0  0  0
    3.2904    6.6556    1.3507 C   0  0  0  0  0  0  0  0  0  0  0  0
    2.0495    6.4551    0.8593 N   0  0  0  0  0  0  0  0  0  0  0  0
    3.3945    7.9076    1.8427 N   0  0  0  0  0  0  0  0  0  0  0  0
    4.9512    4.0289    3.2386 O   0  0  0  0  0  0  0  0  0  0  0  0
    7.1374    4.0052    1.5277 N   0  0  0  0  0  0  0  0  0  0  0  0
    8.2645    3.8247    2.1037 C   0  0  0  0  0  0  0  0  0  0  0  0
    8.8794    2.6818    2.4725 N   0  0  0  0  0  0  0  0  0  0  0  0
    8.9504    4.9142    2.5060 N   0  0  0  0  0  0  0  0  0  0  0  0
    4.7448   -1.8340    0.0406 O   0  0  0  0  0  0  0  0  0  0  0  0
    5.9333   -1.9829    0.8295 C   0  0  3  0  0  0  0  0  0  0  0  0
    6.6190   -3.3526    0.4853 C   0  0  3  0  0  0  0  0  0  0  0  0
    5.7740   -4.5000    1.1094 C   0  0  3  0  0  0  0  0  0  0  0  0
    5.5895   -4.2868    2.6222 C   0  0  3  0  0  0  0  0  0  0  0  0
    4.9585   -2.9108    2.8461 C   0  0  3  0  0  0  0  0  0  0  0  0
    5.7218   -1.8467    2.2359 O   0  0  0  0  0  0  0  0  0  0  0  0
    4.8198   -2.5655    4.3308 C   0  0  0  0  0  0  0  0  0  0  0  0
    4.2683   -1.2523    4.4521 O   0  0  0  0  0  0  0  0  0  0  0  0
    6.8561   -4.4157    3.2878 O   0  0  0  0  0  0  0  0  0  0  0  0
    6.4089   -5.7692    0.8676 O   0  0  0  0  0  0  0  0  0  0  0  0
    8.0186   -3.5270    0.9858 N   0  0  0  0  0  0  0  0  0  0  0  0
    8.9501   -2.5344    0.4754 C   0  0  0  0  0  0  0  0  0  0  0  0
    1.4135   -1.3411    0.3228 C   0  0  0  0  0  0  0  0  0  0  0  0
    1.2711   -1.3056    1.5386 O   0  0  0  0  0  0  0  0  0  0  0  0
    2.7869   -1.5354   -1.6360 O   0  0  0  0  0  0  0  0  0  0  0  0
    0.3256    0.5488   -1.4464 H   0  0  0  0  0  0  0  0  0  0  0  0
    0.9225    2.2072   -1.2989 H   0  0  0  0  0  0  0  0  0  0  0  0
    0.5437    1.3065    0.1556 H   0  0  0  0  0  0  0  0  0  0  0  0
    2.8498    0.9080   -1.7924 H   0  0  0  0  0  0  0  0  0  0  0  0
    3.5555   -0.9729    1.4532 H   0  0  0  0  0  0  0  0  0  0  0  0
    4.6263    0.8730    1.5138 H   0  0  0  0  0  0  0  0  0  0  0  0
    7.0726    2.2468   -0.4417 H   0  0  0  0  0  0  0  0  0  0  0  0
    6.4429    2.0676    2.0200 H   0  0  0  0  0  0  0  0  0  0  0  0
    4.1440    2.6365    2.1006 H   0  0  0  0  0  0  0  0  0  0  0  0
    2.9805    4.2230    1.2333 H   0  0  0  0  0  0  0  0  0  0  0  0
    3.3886    3.5003   -0.8492 H   0  0  0  0  0  0  0  0  0  0  0  0
    6.2611    4.3881   -1.0124 H   0  0  0  0  0  0  0  0  0  0  0  0
    4.9777    2.2400   -2.2964 H   0  0  0  0  0  0  0  0  0  0  0  0
    4.4523    6.0716   -0.8604 H   0  0  0  0  0  0  0  0  0  0  0  0
    2.0492    5.7812    0.0950 H   0  0  0  0  0  0  0  0  0  0  0  0
    1.6125    7.3102    0.5353 H   0  0  0  0  0  0  0  0  0  0  0  0
    4.2433    8.0165    2.3869 H   0  0  0  0  0  0  0  0  0  0  0  0
    2.5914    8.1667    2.4017 H   0  0  0  0  0  0  0  0  0  0  0  0
    4.7993    4.9870    3.1112 H   0  0  0  0  0  0  0  0  0  0  0  0
    8.6119    1.8597    1.9509 H   0  0  0  0  0  0  0  0  0  0  0  0
    9.8750    2.7368    2.6345 H   0  0  0  0  0  0  0  0  0  0  0  0
    8.5096    5.7988    2.2852 H   0  0  0  0  0  0  0  0  0  0  0  0
    9.9423    4.9218    2.6611 H   0  0  0  0  0  0  0  0  0  0  0  0
    6.5923   -1.1654    0.5280 H   0  0  0  0  0  0  0  0  0  0  0  0
    6.6279   -3.4984   -0.6028 H   0  0  0  0  0  0  0  0  0  0  0  0
    4.7919   -4.5410    0.6246 H   0  0  0  0  0  0  0  0  0  0  0  0
    4.9562   -5.0775    3.0405 H   0  0  0  0  0  0  0  0  0  0  0  0
    3.9573   -2.9033    2.4002 H   0  0  0  0  0  0  0  0  0  0  0  0
    5.7857   -2.5591    4.8450 H   0  0  0  0  0  0  0  0  0  0  0  0
    4.1501   -3.2650    4.8398 H   0  0  0  0  0  0  0  0  0  0  0  0
    4.8634   -0.6747    3.9378 H   0  0  0  0  0  0  0  0  0  0  0  0
    7.5045   -3.8861    2.7671 H   0  0  0  0  0  0  0  0  0  0  0  0
    6.9158   -5.9786    1.6783 H   0  0  0  0  0  0  0  0  0  0  0  0
    8.3230   -4.4525    0.6561 H   0  0  0  0  0  0  0  0  0  0  0  0
    8.7051   -1.5306    0.8312 H   0  0  0  0  0  0  0  0  0  0  0  0
    8.9909   -2.5404   -0.6173 H   0  0  0  0  0  0  0  0  0  0  0  0
    9.9510   -2.7649    0.8546 H   0  0  0  0  0  0  0  0  0  0  0  0
    0.6077   -1.7460   -0.3151 H   0  0  0  0  0  0  0  0  0  0  0  0
    3.5892   -2.0769   -1.4853 H   0  0  0  0  0  0  0  0  0  0  0  0
  1  2  1  0  0  0  0
  1 41  1  0  0  0  0
  1 42  1  0  0  0  0
  1 43  1  0  0  0  0
  2  3  1  0  0  0  0
  2  6  1  0  0  0  0
  2 44  1  0  0  0  0
  3  4  1  0  0  0  0
  3 38  1  0  0  0  0
  3 40  1  0  0  0  0
  4  5  1  0  0  0  0
  4 25  1  0  0  0  0
  4 45  1  0  0  0  0
  5  6  1  0  0  0  0
  5  7  1  0  0  0  0
  5 46  1  0  0  0  0
  7  8  1  0  0  0  0
  8  9  1  0  0  0  0
  8 13  1  0  0  0  0
  8 47  1  0  0  0  0
  9 10  1  0  0  0  0
  9 21  1  0  0  0  0
  9 48  1  0  0  0  0
 10 11  1  0  0  0  0
 10 20  1  0  0  0  0
 10 49  1  0  0  0  0
 11 12  1  0  0  0  0
 11 16  1  0  0  0  0
 11 50  1  0  0  0  0
 12 13  1  0  0  0  0
 12 15  1  0  0  0  0
 12 51  1  0  0  0  0
 13 14  1  0  0  0  0
 13 52  1  0  0  0  0
 14 53  1  0  0  0  0
 15 54  1  0  0  0  0
 16 17  2  0  0  0  0
 17 18  1  0  0  0  0
 17 19  1  0  0  0  0
 18 55  1  0  0  0  0
 18 56  1  0  0  0  0
 19 57  1  0  0  0  0
 19 58  1  0  0  0  0
 20 59  1  0  0  0  0
 21 22  2  0  0  0  0
 22 23  1  0  0  0  0
 22 24  1  0  0  0  0
 23 60  1  0  0  0  0
 23 61  1  0  0  0  0
 24 62  1  0  0  0  0
 24 63  1  0  0  0  0
 25 26  1  0  0  0  0
 26 27  1  0  0  0  0
 26 31  1  0  0  0  0
 26 64  1  0  0  0  0
 27 28  1  0  0  0  0
 27 36  1  0  0  0  0
 27 65  1  0  0  0  0
 28 29  1  0  0  0  0
 28 35  1  0  0  0  0
 28 66  1  0  0  0  0
 29 30  1  0  0  0  0
 29 34  1  0  0  0  0
 29 67  1  0  0  0  0
 30 31  1  0  0  0  0
 30 32  1  0  0  0  0
 30 68  1  0  0  0  0
 32 33  1  0  0  0  0
 32 69  1  0  0  0  0
 32 70  1  0  0  0  0
 33 71  1  0  0  0  0
 34 72  1  0  0  0  0
 35 73  1  0  0  0  0
 36 37  1  0  0  0  0
 36 74  1  0  0  0  0
 37 75  1  0  0  0  0
 37 76  1  0  0  0  0
 37 77  1  0  0  0  0
 38 39  2  0  0  0  0
 38 78  1  0  0  0  0
 40 79  1  0  0  0  0
M  END
$$$$
Target_lig_1246
 OpenBabel04172516563D

 88 91  0  0  1  0  0  0  0  0999 V2000
    0.3248    1.6690   -0.1997 C   0  0  0  0  0  0  0  0  0  0  0  0
    1.3189    0.5810    0.2329 C   0  0  3  0  0  0  0  0  0  0  0  0
    0.7664   -0.8067   -0.1616 C   0  0  3  0  0  0  0  0  0  0  0  0
   -0.6305   -1.0876    0.4427 C   0  0  3  0  0  0  0  0  0  0  0  0
   -1.6094   -0.0070   -0.1483 C   0  0  3  0  0  0  0  0  0  0  0  0
   -1.1320    1.4368    0.2482 C   0  0  3  0  0  0  0  0  0  0  0  0
   -1.9508    2.4970   -0.3759 N   0  0  0  0  0  0  0  0  0  0  0  0
   -3.0185   -0.2544    0.1267 O   0  0  0  0  0  0  0  0  0  0  0  0
   -3.5113   -1.5263   -0.3379 C   0  0  3  0  0  0  0  0  0  0  0  0
   -3.4120   -1.7255   -1.8890 C   0  0  3  0  0  0  0  0  0  0  0  0
   -4.6695   -1.1936   -2.5869 C   0  0  3  0  0  0  0  0  0  0  0  0
   -5.9303   -1.8138   -1.9889 C   0  0  3  0  0  0  0  0  0  0  0  0
   -5.9694   -1.4532   -0.4940 C   0  0  3  0  0  0  0  0  0  0  0  0
   -4.7920   -1.9084    0.1982 O   0  0  0  0  0  0  0  0  0  0  0  0
   -7.2213   -2.1149    0.1354 C   0  0  0  0  0  0  0  0  0  0  0  0
   -7.4171   -1.7470    1.5429 N   0  0  0  0  0  0  0  0  0  0  0  0
   -5.9500   -3.2484   -2.1564 O   0  0  0  0  0  0  0  0  0  0  0  0
   -4.5936   -1.4766   -3.9910 O   0  0  0  0  0  0  0  0  0  0  0  0
   -3.1763   -3.1554   -2.2791 N   0  0  0  0  0  0  0  0  0  0  0  0
   -0.6985   -1.1252    1.8881 O   0  0  0  0  0  0  0  0  0  0  0  0
    0.0042   -2.2071    2.5227 C   0  0  3  0  0  0  0  0  0  0  0  0
   -0.5631   -3.6000    2.1848 C   0  0  3  0  0  0  0  0  0  0  0  0
   -0.8732   -4.2481    3.5414 C   0  0  3  0  0  0  0  0  0  0  0  0
    0.0403   -3.4683    4.4854 C   0  0  3  0  0  0  0  0  0  0  0  0
   -0.0218   -2.1128    3.9656 O   0  0  0  0  0  0  0  0  0  0  0  0
    1.5011   -3.9400    4.6560 C   0  0  0  0  0  0  0  0  0  0  0  0
    2.3090   -3.8844    3.4881 O   0  0  0  0  0  0  0  0  0  0  0  0
   -0.7932   -5.6754    3.4418 O   0  0  0  0  0  0  0  0  0  0  0  0
   -0.9745   -6.4120    4.6582 C   0  0  3  0  0  0  0  0  0  0  0  0
   -0.8749   -7.9414    4.3676 C   0  0  3  0  0  0  0  0  0  0  0  0
   -2.1947   -8.4457    3.7434 C   0  0  3  0  0  0  0  0  0  0  0  0
   -3.4340   -8.0364    4.5436 C   0  0  3  0  0  0  0  0  0  0  0  0
   -3.3919   -6.5147    4.8099 C   0  0  3  0  0  0  0  0  0  0  0  0
   -2.1474   -6.1049    5.4076 O   0  0  0  0  0  0  0  0  0  0  0  0
   -4.5342   -6.1263    5.7854 C   0  0  0  0  0  0  0  0  0  0  0  0
   -4.5725   -4.6797    6.0276 N   0  0  0  0  0  0  0  0  0  0  0  0
   -3.5457   -8.7801    5.7556 O   0  0  0  0  0  0  0  0  0  0  0  0
   -2.1446   -9.8733    3.6071 O   0  0  0  0  0  0  0  0  0  0  0  0
   -0.5203   -8.7384    5.5779 N   0  0  0  0  0  0  0  0  0  0  0  0
    0.3978   -4.3733    1.4497 O   0  0  0  0  0  0  0  0  0  0  0  0
    1.7184   -1.8379    0.1161 O   0  0  0  0  0  0  0  0  0  0  0  0
    1.6391    0.7245    1.6551 N   0  0  0  0  0  0  0  0  0  0  0  0
    0.3618    1.7164   -1.3035 H   0  0  0  0  0  0  0  0  0  0  0  0
    0.6841    2.6547    0.1391 H   0  0  0  0  0  0  0  0  0  0  0  0
    2.2635    0.7351   -0.3067 H   0  0  0  0  0  0  0  0  0  0  0  0
    0.6576   -0.8124   -1.2556 H   0  0  0  0  0  0  0  0  0  0  0  0
   -0.9254   -2.0757    0.0785 H   0  0  0  0  0  0  0  0  0  0  0  0
   -1.5006   -0.0255   -1.2365 H   0  0  0  0  0  0  0  0  0  0  0  0
   -1.2198    1.5579    1.3340 H   0  0  0  0  0  0  0  0  0  0  0  0
   -1.8244    2.5104   -1.3846 H   0  0  0  0  0  0  0  0  0  0  0  0
   -1.6189    3.4026   -0.0478 H   0  0  0  0  0  0  0  0  0  0  0  0
   -2.8723   -2.2683    0.1262 H   0  0  0  0  0  0  0  0  0  0  0  0
   -2.5675   -1.1910   -2.3265 H   0  0  0  0  0  0  0  0  0  0  0  0
   -4.7193   -0.1020   -2.4855 H   0  0  0  0  0  0  0  0  0  0  0  0
   -6.8163   -1.4420   -2.5113 H   0  0  0  0  0  0  0  0  0  0  0  0
   -6.0351   -0.3636   -0.3759 H   0  0  0  0  0  0  0  0  0  0  0  0
   -7.1380   -3.2073    0.0917 H   0  0  0  0  0  0  0  0  0  0  0  0
   -8.1193   -1.8240   -0.4215 H   0  0  0  0  0  0  0  0  0  0  0  0
   -6.5942   -2.0587    2.0613 H   0  0  0  0  0  0  0  0  0  0  0  0
   -8.2074   -2.2739    1.9156 H   0  0  0  0  0  0  0  0  0  0  0  0
   -5.1704   -3.4853   -2.6961 H   0  0  0  0  0  0  0  0  0  0  0  0
   -4.1125   -2.3251   -4.0718 H   0  0  0  0  0  0  0  0  0  0  0  0
   -3.5511   -3.7468   -1.5253 H   0  0  0  0  0  0  0  0  0  0  0  0
   -2.1701   -3.3358   -2.2593 H   0  0  0  0  0  0  0  0  0  0  0  0
    1.0595   -2.1268    2.2606 H   0  0  0  0  0  0  0  0  0  0  0  0
   -1.4731   -3.5653    1.5735 H   0  0  0  0  0  0  0  0  0  0  0  0
   -1.9069   -3.9837    3.7912 H   0  0  0  0  0  0  0  0  0  0  0  0
   -0.4071   -3.4563    5.4869 H   0  0  0  0  0  0  0  0  0  0  0  0
    1.5533   -4.9619    5.0408 H   0  0  0  0  0  0  0  0  0  0  0  0
    1.9911   -3.2992    5.3963 H   0  0  0  0  0  0  0  0  0  0  0  0
    1.8993   -4.4074    2.7752 H   0  0  0  0  0  0  0  0  0  0  0  0
   -0.1355   -6.1629    5.3096 H   0  0  0  0  0  0  0  0  0  0  0  0
   -0.0804   -8.1243    3.6348 H   0  0  0  0  0  0  0  0  0  0  0  0
   -2.2811   -8.0386    2.7286 H   0  0  0  0  0  0  0  0  0  0  0  0
   -4.3367   -8.2858    3.9667 H   0  0  0  0  0  0  0  0  0  0  0  0
   -3.5192   -5.9725    3.8687 H   0  0  0  0  0  0  0  0  0  0  0  0
   -4.3897   -6.6141    6.7550 H   0  0  0  0  0  0  0  0  0  0  0  0
   -5.5016   -6.4468    5.3849 H   0  0  0  0  0  0  0  0  0  0  0  0
   -3.6940   -4.4109    6.4738 H   0  0  0  0  0  0  0  0  0  0  0  0
   -5.3031   -4.4803    6.7117 H   0  0  0  0  0  0  0  0  0  0  0  0
   -2.7918   -8.5593    6.3241 H   0  0  0  0  0  0  0  0  0  0  0  0
   -1.9274  -10.1983    4.5050 H   0  0  0  0  0  0  0  0  0  0  0  0
   -0.8470   -8.2609    6.4178 H   0  0  0  0  0  0  0  0  0  0  0  0
    0.4985   -8.7330    5.6720 H   0  0  0  0  0  0  0  0  0  0  0  0
    0.1406   -5.3103    1.5969 H   0  0  0  0  0  0  0  0  0  0  0  0
    1.3193   -2.7004   -0.1056 H   0  0  0  0  0  0  0  0  0  0  0  0
    0.8421    0.4270    2.2268 H   0  0  0  0  0  0  0  0  0  0  0  0
    2.3754    0.0519    1.8832 H   0  0  0  0  0  0  0  0  0  0  0  0
  1  2  1  0  0  0  0
  1  6  1  0  0  0  0
  1 43  1  0  0  0  0
  1 44  1  0  0  0  0
  2  3  1  0  0  0  0
  2 42  1  0  0  0  0
  2 45  1  0  0  0  0
  3  4  1  0  0  0  0
  3 41  1  0  0  0  0
  3 46  1  0  0  0  0
  4  5  1  0  0  0  0
  4 20  1  0  0  0  0
  4 47  1  0  0  0  0
  5  6  1  0  0  0  0
  5  8  1  0  0  0  0
  5 48  1  0  0  0  0
  6  7  1  0  0  0  0
  6 49  1  0  0  0  0
  7 50  1  0  0  0  0
  7 51  1  0  0  0  0
  8  9  1  0  0  0  0
  9 10  1  0  0  0  0
  9 14  1  0  0  0  0
  9 52  1  0  0  0  0
 10 11  1  0  0  0  0
 10 19  1  0  0  0  0
 10 53  1  0  0  0  0
 11 12  1  0  0  0  0
 11 18  1  0  0  0  0
 11 54  1  0  0  0  0
 12 13  1  0  0  0  0
 12 17  1  0  0  0  0
 12 55  1  0  0  0  0
 13 14  1  0  0  0  0
 13 15  1  0  0  0  0
 13 56  1  0  0  0  0
 15 16  1  0  0  0  0
 15 57  1  0  0  0  0
 15 58  1  0  0  0  0
 16 59  1  0  0  0  0
 16 60  1  0  0  0  0
 17 61  1  0  0  0  0
 18 62  1  0  0  0  0
 19 63  1  0  0  0  0
 19 64  1  0  0  0  0
 20 21  1  0  0  0  0
 21 22  1  0  0  0  0
 21 25  1  0  0  0  0
 21 65  1  0  0  0  0
 22 23  1  0  0  0  0
 22 40  1  0  0  0  0
 22 66  1  0  0  0  0
 23 24  1  0  0  0  0
 23 28  1  0  0  0  0
 23 67  1  0  0  0  0
 24 25  1  0  0  0  0
 24 26  1  0  0  0  0
 24 68  1  0  0  0  0
 26 27  1  0  0  0  0
 26 69  1  0  0  0  0
 26 70  1  0  0  0  0
 27 71  1  0  0  0  0
 28 29  1  0  0  0  0
 29 30  1  0  0  0  0
 29 34  1  0  0  0  0
 29 72  1  0  0  0  0
 30 31  1  0  0  0  0
 30 39  1  0  0  0  0
 30 73  1  0  0  0  0
 31 32  1  0  0  0  0
 31 38  1  0  0  0  0
 31 74  1  0  0  0  0
 32 33  1  0  0  0  0
 32 37  1  0  0  0  0
 32 75  1  0  0  0  0
 33 34  1  0  0  0  0
 33 35  1  0  0  0  0
 33 76  1  0  0  0  0
 35 36  1  0  0  0  0
 35 77  1  0  0  0  0
 35 78  1  0  0  0  0
 36 79  1  0  0  0  0
 36 80  1  0  0  0  0
 37 81  1  0  0  0  0
 38 82  1  0  0  0  0
 39 83  1  0  0  0  0
 39 84  1  0  0  0  0
 40 85  1  0  0  0  0
 41 86  1  0  0  0  0
 42 87  1  0  0  0  0
 42 88  1  0  0  0  0
M  END
$$$$
Target_lig_76
 OpenBabel04172516563D

 70 72  0  0  1  0  0  0  0  0999 V2000
    7.5686   -2.2240    1.0557 C   0  0  0  0  0  0  0  0  0  0  0  0
    6.8847   -2.7649   -0.2136 C   0  0  3  0  0  0  0  0  0  0  0  0
    7.2521   -1.9044   -1.4370 C   0  0  0  0  0  0  0  0  0  0  0  0
    6.7705   -0.5681   -1.3431 O   0  0  0  0  0  0  0  0  0  0  0  0
    5.3490   -0.4821   -1.3106 C   0  0  3  0  0  0  0  0  0  0  0  0
    4.7418   -1.3659   -0.1816 C   0  0  3  0  0  0  0  0  0  0  0  0
    5.3305   -2.8005   -0.0983 C   0  0  3  0  0  0  0  0  0  0  0  0
    4.7944   -3.4357    1.1435 N   0  0  0  0  0  0  0  0  0  0  0  0
    5.1868   -4.8230    1.3245 C   0  0  0  0  0  0  0  0  0  0  0  0
    3.3075   -1.4103   -0.2841 O   0  0  0  0  0  0  0  0  0  0  0  0
    4.7279   -0.6987   -2.6082 O   0  0  0  0  0  0  0  0  0  0  0  0
    5.2582    0.1758   -3.6626 C   0  0  3  0  0  0  0  0  0  0  0  0
    4.9914    1.6920   -3.4060 C   0  0  3  0  0  0  0  0  0  0  0  0
    3.5471    2.0892   -3.7235 C   0  0  0  0  0  0  0  0  0  0  0  0
    2.9864    1.6082   -5.0616 C   0  0  3  0  0  0  0  0  0  0  0  0
    3.1927    0.0715   -5.2393 C   0  0  3  0  0  0  0  0  0  0  0  0
    4.7038   -0.2623   -5.0655 C   0  0  3  0  0  0  0  0  0  0  0  0
    4.9781   -1.6466   -5.2691 O   0  0  0  0  0  0  0  0  0  0  0  0
    2.6362   -0.4476   -6.4936 O   0  0  0  0  0  0  0  0  0  0  0  0
    1.2702   -0.0684   -6.7538 C   0  0  3  0  0  0  0  0  0  0  0  0
    0.2211   -0.7473   -5.8220 C   0  0  3  0  0  0  0  0  0  0  0  0
   -0.1612   -2.1435   -6.3218 C   0  0  0  0  0  0  0  0  0  0  0  0
   -0.4536   -2.1851   -7.8130 C   0  0  0  0  0  0  0  0  0  0  0  0
    0.5908   -1.4387   -8.6477 C   0  0  3  0  0  0  0  0  0  0  0  0
    0.8813   -0.1432   -8.1266 O   0  0  0  0  0  0  0  0  0  0  0  0
    0.0117   -1.2038  -10.0698 C   0  0  0  0  0  0  0  0  0  0  0  0
    0.8929   -0.3676  -10.8934 N   0  0  0  0  0  0  0  0  0  0  0  0
   -1.0086    0.0732   -5.7094 N   0  0  0  0  0  0  0  0  0  0  0  0
    3.4619    2.3966   -6.2047 N   0  0  0  0  0  0  0  0  0  0  0  0
    5.9418    2.5762   -4.0928 N   0  0  0  0  0  0  0  0  0  0  0  0
    7.3723   -4.0952   -0.4689 O   0  0  0  0  0  0  0  0  0  0  0  0
    7.3061   -1.1819    1.2603 H   0  0  0  0  0  0  0  0  0  0  0  0
    8.6592   -2.2879    0.9637 H   0  0  0  0  0  0  0  0  0  0  0  0
    7.3139   -2.8193    1.9377 H   0  0  0  0  0  0  0  0  0  0  0  0
    6.8911   -2.3673   -2.3642 H   0  0  0  0  0  0  0  0  0  0  0  0
    8.3431   -1.8559   -1.5356 H   0  0  0  0  0  0  0  0  0  0  0  0
    5.0975    0.5360   -1.0074 H   0  0  0  0  0  0  0  0  0  0  0  0
    4.9721   -0.8661    0.7693 H   0  0  0  0  0  0  0  0  0  0  0  0
    4.9268   -3.3818   -0.9386 H   0  0  0  0  0  0  0  0  0  0  0  0
    3.7738   -3.3686    1.1090 H   0  0  0  0  0  0  0  0  0  0  0  0
    6.2380   -4.9171    1.6115 H   0  0  0  0  0  0  0  0  0  0  0  0
    4.9960   -5.4321    0.4329 H   0  0  0  0  0  0  0  0  0  0  0  0
    4.6107   -5.2588    2.1496 H   0  0  0  0  0  0  0  0  0  0  0  0
    3.1064   -1.5788   -1.2266 H   0  0  0  0  0  0  0  0  0  0  0  0
    6.3401   -0.0056   -3.6825 H   0  0  0  0  0  0  0  0  0  0  0  0
    5.1258    1.9314   -2.3492 H   0  0  0  0  0  0  0  0  0  0  0  0
    3.4261    3.1777   -3.6429 H   0  0  0  0  0  0  0  0  0  0  0  0
    2.9034    1.6721   -2.9350 H   0  0  0  0  0  0  0  0  0  0  0  0
    1.9137    1.8164   -4.9977 H   0  0  0  0  0  0  0  0  0  0  0  0
    2.6583   -0.4609   -4.4386 H   0  0  0  0  0  0  0  0  0  0  0  0
    5.2729    0.2555   -5.8480 H   0  0  0  0  0  0  0  0  0  0  0  0
    4.5254   -2.1369   -4.5515 H   0  0  0  0  0  0  0  0  0  0  0  0
    1.2027    1.0039   -6.5972 H   0  0  0  0  0  0  0  0  0  0  0  0
    0.6142   -0.8516   -4.8079 H   0  0  0  0  0  0  0  0  0  0  0  0
   -1.0429   -2.5111   -5.7776 H   0  0  0  0  0  0  0  0  0  0  0  0
    0.6492   -2.8469   -6.0910 H   0  0  0  0  0  0  0  0  0  0  0  0
   -1.4460   -1.7475   -7.9799 H   0  0  0  0  0  0  0  0  0  0  0  0
   -0.5202   -3.2278   -8.1500 H   0  0  0  0  0  0  0  0  0  0  0  0
    1.5239   -2.0121   -8.7090 H   0  0  0  0  0  0  0  0  0  0  0  0
   -0.9432   -0.6693   -9.9781 H   0  0  0  0  0  0  0  0  0  0  0  0
   -0.1834   -2.1509  -10.5789 H   0  0  0  0  0  0  0  0  0  0  0  0
    1.2870    0.3453  -10.2694 H   0  0  0  0  0  0  0  0  0  0  0  0
    0.3293    0.1427  -11.5705 H   0  0  0  0  0  0  0  0  0  0  0  0
   -1.3904    0.2085   -6.6475 H   0  0  0  0  0  0  0  0  0  0  0  0
   -0.7530    1.0122   -5.4019 H   0  0  0  0  0  0  0  0  0  0  0  0
    4.4499    2.2511   -6.3977 H   0  0  0  0  0  0  0  0  0  0  0  0
    3.3493    3.3949   -6.0299 H   0  0  0  0  0  0  0  0  0  0  0  0
    6.0120    2.3681   -5.0853 H   0  0  0  0  0  0  0  0  0  0  0  0
    6.8783    2.4229   -3.7116 H   0  0  0  0  0  0  0  0  0  0  0  0
    8.3278   -4.1114   -0.2872 H   0  0  0  0  0  0  0  0  0  0  0  0
  1  2  1  0  0  0  0
  1 32  1  0  0  0  0
  1 33  1  0  0  0  0
  1 34  1  0  0  0  0
  2  3  1  0  0  0  0
  2  7  1  0  0  0  0
  2 31  1  0  0  0  0
  3  4  1  0  0  0  0
  3 35  1  0  0  0  0
  3 36  1  0  0  0  0
  4  5  1  0  0  0  0
  5  6  1  0  0  0  0
  5 11  1  0  0  0  0
  5 37  1  0  0  0  0
  6  7  1  0  0  0  0
  6 10  1  0  0  0  0
  6 38  1  0  0  0  0
  7  8  1  0  0  0  0
  7 39  1  0  0  0  0
  8  9  1  0  0  0  0
  8 40  1  0  0  0  0
  9 41  1  0  0  0  0
  9 42  1  0  0  0  0
  9 43  1  0  0  0  0
 10 44  1  0  0  0  0
 11 12  1  0  0  0  0
 12 13  1  0  0  0  0
 12 17  1  0  0  0  0
 12 45  1  0  0  0  0
 13 14  1  0  0  0  0
 13 30  1  0  0  0  0
 13 46  1  0  0  0  0
 14 15  1  0  0  0  0
 14 47  1  0  0  0  0
 14 48  1  0  0  0  0
 15 16  1  0  0  0  0
 15 29  1  0  0  0  0
 15 49  1  0  0  0  0
 16 17  1  0  0  0  0
 16 19  1  0  0  0  0
 16 50  1  0  0  0  0
 17 18  1  0  0  0  0
 17 51  1  0  0  0  0
 18 52  1  0  0  0  0
 19 20  1  0  0  0  0
 20 21  1  0  0  0  0
 20 25  1  0  0  0  0
 20 53  1  0  0  0  0
 21 22  1  0  0  0  0
 21 28  1  0  0  0  0
 21 54  1  0  0  0  0
 22 23  1  0  0  0  0
 22 55  1  0  0  0  0
 22 56  1  0  0  0  0
 23 24  1  0  0  0  0
 23 57  1  0  0  0  0
 23 58  1  0  0  0  0
 24 25  1  0  0  0  0
 24 26  1  0  0  0  0
 24 59  1  0  0  0  0
 26 27  1  0  0  0  0
 26 60  1  0  0  0  0
 26 61  1  0  0  0  0
 27 62  1  0  0  0  0
 27 63  1  0  0  0  0
 28 64  1  0  0  0  0
 28 65  1  0  0  0  0
 29 66  1  0  0  0  0
 29 67  1  0  0  0  0
 30 68  1  0  0  0  0
 30 69  1  0  0  0  0
 31 70  1  0  0  0  0
M  END
$$$$
Target_lig_540
 OpenBabel04172516563D

 91 96  0  0  1  0  0  0  0  0999 V2000
    0.3862    1.0976   -0.7598 C   0  0  2  0  0  0  0  0  0  0  0  0
   -1.0222    0.6011   -1.2024 C   0  0  2  0  0  0  0  0  0  0  0  0
   -1.7297    1.6596   -2.0671 C   0  0  0  0  0  0  0  0  0  0  0  0
   -1.8824    3.0510   -1.4220 C   0  0  2  0  0  0  0  0  0  0  0  0
   -0.4618    3.5413   -0.9828 C   0  0  2  0  0  0  0  0  0  0  0  0
    0.3300    2.5176   -0.1179 C   0  0  1  0  0  0  0  0  0  0  0  0
   -0.2136    2.3992    1.2026 O   0  0  0  0  0  0  0  0  0  0  0  0
   -0.3427    4.8804   -0.4563 O   0  0  0  0  0  0  0  0  0  0  0  0
   -0.9460    5.9478   -1.2006 C   0  0  2  0  0  0  0  0  0  0  0  0
   -0.2773    6.3381   -2.5770 C   0  0  1  0  0  0  0  0  0  0  0  0
    1.0889    6.9917   -2.3518 C   0  0  0  0  0  0  0  0  0  0  0  0
    0.9237    8.2134   -1.4543 C   0  0  1  0  0  0  0  0  0  0  0  0
    0.1653    7.8907   -0.1524 C   0  0  1  0  0  0  0  0  0  0  0  0
   -1.0372    7.1321   -0.3737 O   0  0  0  0  0  0  0  0  0  0  0  0
    1.0627    7.2757    0.9433 C   0  0  0  0  0  0  0  0  0  0  0  0
    0.3328    7.0051    2.1857 N   0  0  0  0  0  0  0  0  0  0  0  0
    2.1896    8.8311   -1.2290 O   0  0  0  0  0  0  0  0  0  0  0  0
   -0.1917    5.3396   -3.6588 N   0  0  0  0  0  0  0  0  0  0  0  0
   -2.9787    3.1051   -0.4523 N   0  0  0  0  0  0  0  0  0  0  0  0
   -1.8788    0.1264   -0.1127 N   0  0  0  0  0  0  0  0  0  0  0  0
    1.2256    0.9319   -1.9177 O   0  0  0  0  0  0  0  0  0  0  0  0
    2.6045    1.2726   -1.7795 C   0  0  2  0  0  0  0  0  0  0  0  0
    3.3266    0.9865   -3.1252 C   0  0  2  0  0  0  0  0  0  0  0  0
    4.3866   -0.1415   -3.1392 C   0  0  1  0  0  0  0  0  0  0  0  0
    4.9108   -0.5479   -1.7393 C   0  0  2  0  0  0  0  0  0  0  0  0
    3.9410   -0.4260   -0.5397 C   0  0  1  0  0  0  0  0  0  0  0  0
    3.1896    0.7967   -0.5777 O   0  0  0  0  0  0  0  0  0  0  0  0
    3.1153   -1.7091   -0.0974 C   0  0  0  0  0  0  0  0  0  0  0  0
    3.8637   -2.5511    0.9004 N   0  0  0  0  0  0  0  0  0  0  0  0
    3.3716   -3.1945    2.0826 C   0  0  0  0  0  0  0  0  0  0  0  0
    2.6068   -2.5094    3.0930 C   0  0  0  0  0  0  0  0  0  0  0  0
    2.2384   -1.1452    3.0778 C   0  0  0  0  0  0  0  0  0  0  0  0
    1.5686   -0.5488    4.1617 C   0  0  0  0  0  0  0  0  0  0  0  0
    1.2571   -1.2974    5.2833 C   0  0  0  0  0  0  0  0  0  0  0  0
    1.5946   -2.6342    5.3248 C   0  0  0  0  0  0  0  0  0  0  0  0
    2.2603   -3.2430    4.2822 C   0  0  0  0  0  0  0  0  0  0  0  0
    2.5952   -4.4947    4.5017 N   0  0  0  0  0  0  0  0  0  0  0  0
    3.3632   -5.1244    3.6255 C   0  0  0  0  0  0  0  0  0  0  0  0
    3.7950   -4.5538    2.3960 C   0  0  0  0  0  0  0  0  0  0  0  0
    4.6277   -5.4039    1.6103 C   0  0  0  0  0  0  0  0  0  0  0  0
    5.0349   -6.6745    2.0492 C   0  0  0  0  0  0  0  0  0  0  0  0
    4.5968   -7.1671    3.2638 C   0  0  0  0  0  0  0  0  0  0  0  0
    3.7575   -6.3913    4.0395 C   0  0  0  0  0  0  0  0  0  0  0  0
    6.0552    0.3007   -1.4731 O   0  0  0  0  0  0  0  0  0  0  0  0
    4.0240   -1.3005   -3.9727 N   0  0  0  0  0  0  0  0  0  0  0  0
    3.9248    2.2116   -3.6279 O   0  0  0  0  0  0  0  0  0  0  0  0
    0.7617    0.3923   -0.0105 H   0  0  0  0  0  0  0  0  0  0  0  0
   -0.8676   -0.2700   -1.8521 H   0  0  0  0  0  0  0  0  0  0  0  0
   -2.7004    1.2842   -2.4151 H   0  0  0  0  0  0  0  0  0  0  0  0
   -1.1346    1.7987   -2.9824 H   0  0  0  0  0  0  0  0  0  0  0  0
   -2.2197    3.7173   -2.2240 H   0  0  0  0  0  0  0  0  0  0  0  0
    0.1383    3.5476   -1.8864 H   0  0  0  0  0  0  0  0  0  0  0  0
    1.3424    2.9213    0.0038 H   0  0  0  0  0  0  0  0  0  0  0  0
    0.3486    1.7643    1.6845 H   0  0  0  0  0  0  0  0  0  0  0  0
   -1.9909    5.6896   -1.3923 H   0  0  0  0  0  0  0  0  0  0  0  0
   -0.9209    7.1265   -2.9915 H   0  0  0  0  0  0  0  0  0  0  0  0
    1.5221    7.3262   -3.3046 H   0  0  0  0  0  0  0  0  0  0  0  0
    1.8118    6.2850   -1.9268 H   0  0  0  0  0  0  0  0  0  0  0  0
    0.3260    8.9488   -2.0090 H   0  0  0  0  0  0  0  0  0  0  0  0
   -0.1725    8.8560    0.2512 H   0  0  0  0  0  0  0  0  0  0  0  0
    1.5133    6.3433    0.5950 H   0  0  0  0  0  0  0  0  0  0  0  0
    1.8838    7.9624    1.1814 H   0  0  0  0  0  0  0  0  0  0  0  0
   -0.4851    6.4407    1.9276 H   0  0  0  0  0  0  0  0  0  0  0  0
   -0.0612    7.8767    2.5394 H   0  0  0  0  0  0  0  0  0  0  0  0
    2.8182    8.1616   -0.9087 H   0  0  0  0  0  0  0  0  0  0  0  0
    0.2424    4.4779   -3.3596 H   0  0  0  0  0  0  0  0  0  0  0  0
    0.4355    5.6843   -4.3883 H   0  0  0  0  0  0  0  0  0  0  0  0
   -2.7360    2.7270    0.4514 H   0  0  0  0  0  0  0  0  0  0  0  0
   -3.7810    2.5618   -0.8107 H   0  0  0  0  0  0  0  0  0  0  0  0
   -2.2326    0.9096    0.4319 H   0  0  0  0  0  0  0  0  0  0  0  0
   -1.3460   -0.4443    0.5427 H   0  0  0  0  0  0  0  0  0  0  0  0
    2.6131    2.3641   -1.6778 H   0  0  0  0  0  0  0  0  0  0  0  0
    2.5668    0.7762   -3.8897 H   0  0  0  0  0  0  0  0  0  0  0  0
    5.2485    0.2728   -3.6855 H   0  0  0  0  0  0  0  0  0  0  0  0
    5.3294   -1.5601   -1.7742 H   0  0  0  0  0  0  0  0  0  0  0  0
    4.5919   -0.2460    0.3258 H   0  0  0  0  0  0  0  0  0  0  0  0
    2.1411   -1.4139    0.2980 H   0  0  0  0  0  0  0  0  0  0  0  0
    2.9158   -2.3275   -0.9805 H   0  0  0  0  0  0  0  0  0  0  0  0
    4.5672   -3.1165    0.4351 H   0  0  0  0  0  0  0  0  0  0  0  0
    2.5110   -0.5160    2.2461 H   0  0  0  0  0  0  0  0  0  0  0  0
    1.3297    0.5106    4.1273 H   0  0  0  0  0  0  0  0  0  0  0  0
    0.7802   -0.8400    6.1479 H   0  0  0  0  0  0  0  0  0  0  0  0
    1.3741   -3.2231    6.2145 H   0  0  0  0  0  0  0  0  0  0  0  0
    4.9994   -5.0726    0.6456 H   0  0  0  0  0  0  0  0  0  0  0  0
    5.7014   -7.2783    1.4352 H   0  0  0  0  0  0  0  0  0  0  0  0
    4.9288   -8.1454    3.6264 H   0  0  0  0  0  0  0  0  0  0  0  0
    3.4156   -6.7657    4.9898 H   0  0  0  0  0  0  0  0  0  0  0  0
    5.7814    1.2298   -1.5331 H   0  0  0  0  0  0  0  0  0  0  0  0
    3.3964   -1.0452   -4.7356 H   0  0  0  0  0  0  0  0  0  0  0  0
    3.6341   -2.0830   -3.4616 H   0  0  0  0  0  0  0  0  0  0  0  0
    4.5865    2.5347   -2.9944 H   0  0  0  0  0  0  0  0  0  0  0  0
  1  2  1  0  0  0  0
  1  6  1  0  0  0  0
  1 21  1  0  0  0  0
  1 47  1  1  0  0  0
  2  3  1  0  0  0  0
  2 20  1  0  0  0  0
  2 48  1  6  0  0  0
  3  4  1  0  0  0  0
  3 49  1  0  0  0  0
  3 50  1  0  0  0  0
  4  5  1  0  0  0  0
  4 19  1  0  0  0  0
  4 51  1  6  0  0  0
  5  6  1  0  0  0  0
  5  8  1  0  0  0  0
  5 52  1  6  0  0  0
  6  7  1  0  0  0  0
  6 53  1  1  0  0  0
  7 54  1  0  0  0  0
  8  9  1  0  0  0  0
  9 10  1  0  0  0  0
  9 14  1  0  0  0  0
  9 55  1  6  0  0  0
 10 11  1  0  0  0  0
 10 18  1  0  0  0  0
 10 56  1  6  0  0  0
 11 12  1  0  0  0  0
 11 57  1  0  0  0  0
 11 58  1  0  0  0  0
 12 13  1  0  0  0  0
 12 17  1  0  0  0  0
 12 59  1  6  0  0  0
 13 14  1  0  0  0  0
 13 15  1  0  0  0  0
 13 60  1  1  0  0  0
 15 16  1  0  0  0  0
 15 61  1  0  0  0  0
 15 62  1  0  0  0  0
 16 63  1  0  0  0  0
 16 64  1  0  0  0  0
 17 65  1  0  0  0  0
 18 66  1  0  0  0  0
 18 67  1  0  0  0  0
 19 68  1  0  0  0  0
 19 69  1  0  0  0  0
 20 70  1  0  0  0  0
 20 71  1  0  0  0  0
 21 22  1  0  0  0  0
 22 23  1  0  0  0  0
 22 27  1  0  0  0  0
 22 72  1  1  0  0  0
 23 24  1  0  0  0  0
 23 46  1  0  0  0  0
 23 73  1  6  0  0  0
 24 25  1  0  0  0  0
 24 45  1  0  0  0  0
 24 74  1  6  0  0  0
 25 26  1  0  0  0  0
 25 44  1  0  0  0  0
 25 75  1  6  0  0  0
 26 27  1  0  0  0  0
 26 28  1  0  0  0  0
 26 76  1  1  0  0  0
 28 29  1  0  0  0  0
 28 77  1  0  0  0  0
 28 78  1  0  0  0  0
 29 30  1  0  0  0  0
 29 79  1  0  0  0  0
 30 31  1  0  0  0  0
 30 39  2  0  0  0  0
 31 32  1  0  0  0  0
 31 36  2  0  0  0  0
 32 33  2  0  0  0  0
 32 80  1  0  0  0  0
 33 34  1  0  0  0  0
 33 81  1  0  0  0  0
 34 35  2  0  0  0  0
 34 82  1  0  0  0  0
 35 36  1  0  0  0  0
 35 83  1  0  0  0  0
 36 37  1  0  0  0  0
 37 38  2  0  0  0  0
 38 39  1  0  0  0  0
 38 43  1  0  0  0  0
 39 40  1  0  0  0  0
 40 41  2  0  0  0  0
 40 84  1  0  0  0  0
 41 42  1  0  0  0  0
 41 85  1  0  0  0  0
 42 43  2  0  0  0  0
 42 86  1  0  0  0  0
 43 87  1  0  0  0  0
 44 88  1  0  0  0  0
 45 89  1  0  0  0  0
 45 90  1  0  0  0  0
 46 91  1  0  0  0  0
M  END
$$$$
Target_lig_7
 OpenBabel04172516563D

 69 71  0  0  1  0  0  0  0  0999 V2000
    0.4142    1.6598    0.3566 C   0  0  0  0  0  0  0  0  0  0  0  0
    1.4097    0.6540    0.9575 C   0  0  3  0  0  0  0  0  0  0  0  0
    1.0038   -0.7620    0.4812 C   0  0  3  0  0  0  0  0  0  0  0  0
   -0.4297   -1.0998    0.9422 C   0  0  3  0  0  0  0  0  0  0  0  0
   -1.4233   -0.1839    0.2001 C   0  0  3  0  0  0  0  0  0  0  0  0
   -1.0829    1.3105    0.5362 C   0  0  3  0  0  0  0  0  0  0  0  0
   -1.8648    2.2462   -0.3001 N   0  0  0  0  0  0  0  0  0  0  0  0
   -2.7734   -0.5119    0.6292 O   0  0  0  0  0  0  0  0  0  0  0  0
   -3.3608   -1.6007   -0.0988 C   0  0  3  0  0  0  0  0  0  0  0  0
   -4.9040   -1.6144    0.0393 C   0  0  3  0  0  0  0  0  0  0  0  0
   -5.2966   -2.0216    1.4655 C   0  0  3  0  0  0  0  0  0  0  0  0
   -4.6840   -3.3904    1.8107 C   0  0  3  0  0  0  0  0  0  0  0  0
   -3.1639   -3.3208    1.5965 C   0  0  3  0  0  0  0  0  0  0  0  0
   -2.8283   -2.8839    0.2581 O   0  0  0  0  0  0  0  0  0  0  0  0
   -2.5141   -4.6972    1.8597 C   0  0  0  0  0  0  0  0  0  0  0  0
   -1.0495   -4.6438    1.7839 N   0  0  0  0  0  0  0  0  0  0  0  0
   -5.2749   -4.4304    1.0104 O   0  0  0  0  0  0  0  0  0  0  0  0
   -6.7231   -2.0768    1.5846 O   0  0  0  0  0  0  0  0  0  0  0  0
   -5.4883   -2.5860   -0.8670 O   0  0  0  0  0  0  0  0  0  0  0  0
   -0.6294   -0.9167    2.3573 O   0  0  0  0  0  0  0  0  0  0  0  0
    1.9251   -1.7888    0.8842 O   0  0  0  0  0  0  0  0  0  0  0  0
    3.0160   -1.9311   -0.0238 C   0  0  3  0  0  0  0  0  0  0  0  0
    3.7202   -3.2940    0.1432 C   0  0  3  0  0  0  0  0  0  0  0  0
    4.4557   -3.3457    1.4973 C   0  0  3  0  0  0  0  0  0  0  0  0
    5.4231   -2.1419    1.6098 C   0  0  3  0  0  0  0  0  0  0  0  0
    4.6441   -0.8369    1.3512 C   0  0  3  0  0  0  0  0  0  0  0  0
    3.9745   -0.8795    0.0721 O   0  0  0  0  0  0  0  0  0  0  0  0
    5.5493    0.4073    1.3802 C   0  0  0  0  0  0  0  0  0  0  0  0
    6.5744    0.3790    0.3865 O   0  0  0  0  0  0  0  0  0  0  0  0
    6.5231   -2.2532    0.6834 O   0  0  0  0  0  0  0  0  0  0  0  0
    5.1643   -4.6267    1.6778 N   0  0  0  0  0  0  0  0  0  0  0  0
    4.6857   -3.5033   -0.9176 O   0  0  0  0  0  0  0  0  0  0  0  0
    1.5317    0.7680    2.4160 N   0  0  0  0  0  0  0  0  0  0  0  0
    0.6395    1.7205   -0.7185 H   0  0  0  0  0  0  0  0  0  0  0  0
    0.6174    2.6621    0.7571 H   0  0  0  0  0  0  0  0  0  0  0  0
    2.3987    0.9017    0.5640 H   0  0  0  0  0  0  0  0  0  0  0  0
    0.9741   -0.7593   -0.6177 H   0  0  0  0  0  0  0  0  0  0  0  0
   -0.6194   -2.1507    0.7354 H   0  0  0  0  0  0  0  0  0  0  0  0
   -1.3365   -0.3272   -0.8858 H   0  0  0  0  0  0  0  0  0  0  0  0
   -1.3732    1.5059    1.5755 H   0  0  0  0  0  0  0  0  0  0  0  0
   -1.5618    2.1875   -1.2722 H   0  0  0  0  0  0  0  0  0  0  0  0
   -1.6461    3.2033   -0.0125 H   0  0  0  0  0  0  0  0  0  0  0  0
   -3.1412   -1.4675   -1.1653 H   0  0  0  0  0  0  0  0  0  0  0  0
   -5.3388   -0.6387   -0.2037 H   0  0  0  0  0  0  0  0  0  0  0  0
   -4.9415   -1.2708    2.1807 H   0  0  0  0  0  0  0  0  0  0  0  0
   -4.9165   -3.6501    2.8507 H   0  0  0  0  0  0  0  0  0  0  0  0
   -2.7476   -2.6002    2.3074 H   0  0  0  0  0  0  0  0  0  0  0  0
   -2.8594   -5.4327    1.1253 H   0  0  0  0  0  0  0  0  0  0  0  0
   -2.7927   -5.0505    2.8579 H   0  0  0  0  0  0  0  0  0  0  0  0
   -0.7886   -4.4427    0.8190 H   0  0  0  0  0  0  0  0  0  0  0  0
   -0.6655   -5.5614    2.0026 H   0  0  0  0  0  0  0  0  0  0  0  0
   -5.3537   -4.0799    0.0979 H   0  0  0  0  0  0  0  0  0  0  0  0
   -7.0186   -2.7491    0.9395 H   0  0  0  0  0  0  0  0  0  0  0  0
   -5.0644   -2.4734   -1.7378 H   0  0  0  0  0  0  0  0  0  0  0  0
   -1.5925   -0.8753    2.4909 H   0  0  0  0  0  0  0  0  0  0  0  0
    2.6358   -1.9048   -1.0533 H   0  0  0  0  0  0  0  0  0  0  0  0
    2.9859   -4.1051    0.0850 H   0  0  0  0  0  0  0  0  0  0  0  0
    3.7175   -3.2676    2.3066 H   0  0  0  0  0  0  0  0  0  0  0  0
    5.8662   -2.1110    2.6135 H   0  0  0  0  0  0  0  0  0  0  0  0
    3.8897   -0.7141    2.1365 H   0  0  0  0  0  0  0  0  0  0  0  0
    6.0299    0.5103    2.3583 H   0  0  0  0  0  0  0  0  0  0  0  0
    4.9544    1.3068    1.1932 H   0  0  0  0  0  0  0  0  0  0  0  0
    6.9476   -0.5288    0.4081 H   0  0  0  0  0  0  0  0  0  0  0  0
    6.2218   -2.8445   -0.0355 H   0  0  0  0  0  0  0  0  0  0  0  0
    5.7673   -4.7730    0.8612 H   0  0  0  0  0  0  0  0  0  0  0  0
    4.4913   -5.3951    1.6473 H   0  0  0  0  0  0  0  0  0  0  0  0
    4.6778   -2.7049   -1.4833 H   0  0  0  0  0  0  0  0  0  0  0  0
    0.7557    0.2540    2.8560 H   0  0  0  0  0  0  0  0  0  0  0  0
    1.4765    1.7332    2.7287 H   0  0  0  0  0  0  0  0  0  0  0  0
  1  2  1  0  0  0  0
  1  6  1  0  0  0  0
  1 34  1  0  0  0  0
  1 35  1  0  0  0  0
  2  3  1  0  0  0  0
  2 33  1  0  0  0  0
  2 36  1  0  0  0  0
  3  4  1  0  0  0  0
  3 21  1  0  0  0  0
  3 37  1  0  0  0  0
  4  5  1  0  0  0  0
  4 20  1  0  0  0  0
  4 38  1  0  0  0  0
  5  6  1  0  0  0  0
  5  8  1  0  0  0  0
  5 39  1  0  0  0  0
  6  7  1  0  0  0  0
  6 40  1  0  0  0  0
  7 41  1  0  0  0  0
  7 42  1  0  0  0  0
  8  9  1  0  0  0  0
  9 10  1  0  0  0  0
  9 14  1  0  0  0  0
  9 43  1  0  0  0  0
 10 11  1  0  0  0  0
 10 19  1  0  0  0  0
 10 44  1  0  0  0  0
 11 12  1  0  0  0  0
 11 18  1  0  0  0  0
 11 45  1  0  0  0  0
 12 13  1  0  0  0  0
 12 17  1  0  0  0  0
 12 46  1  0  0  0  0
 13 14  1  0  0  0  0
 13 15  1  0  0  0  0
 13 47  1  0  0  0  0
 15 16  1  0  0  0  0
 15 48  1  0  0  0  0
 15 49  1  0  0  0  0
 16 50  1  0  0  0  0
 16 51  1  0  0  0  0
 17 52  1  0  0  0  0
 18 53  1  0  0  0  0
 19 54  1  0  0  0  0
 20 55  1  0  0  0  0
 21 22  1  0  0  0  0
 22 23  1  0  0  0  0
 22 27  1  0  0  0  0
 22 56  1  0  0  0  0
 23 24  1  0  0  0  0
 23 32  1  0  0  0  0
 23 57  1  0  0  0  0
 24 25  1  0  0  0  0
 24 31  1  0  0  0  0
 24 58  1  0  0  0  0
 25 26  1  0  0  0  0
 25 30  1  0  0  0  0
 25 59  1  0  0  0  0
 26 27  1  0  0  0  0
 26 28  1  0  0  0  0
 26 60  1  0  0  0  0
 28 29  1  0  0  0  0
 28 61  1  0  0  0  0
 28 62  1  0  0  0  0
 29 63  1  0  0  0  0
 30 64  1  0  0  0  0
 31 65  1  0  0  0  0
 31 66  1  0  0  0  0
 32 67  1  0  0  0  0
 33 68  1  0  0  0  0
 33 69  1  0  0  0  0
M  END
$$$$
Target_lig_8
 OpenBabel04172516563D

 70 72  0  0  1  0  0  0  0  0999 V2000
    0.4227    1.6592    0.3518 C   0  0  0  0  0  0  0  0  0  0  0  0
    1.4008    0.6507    0.9694 C   0  0  3  0  0  0  0  0  0  0  0  0
    1.0150   -0.7596    0.4687 C   0  0  3  0  0  0  0  0  0  0  0  0
   -0.4184   -1.1180    0.9081 C   0  0  3  0  0  0  0  0  0  0  0  0
   -1.4135   -0.1854    0.1940 C   0  0  3  0  0  0  0  0  0  0  0  0
   -1.0711    1.3104    0.5269 C   0  0  3  0  0  0  0  0  0  0  0  0
   -1.8479    2.2475   -0.3132 N   0  0  0  0  0  0  0  0  0  0  0  0
   -2.7548   -0.5047    0.6615 O   0  0  0  0  0  0  0  0  0  0  0  0
   -3.3574   -1.6029   -0.0383 C   0  0  3  0  0  0  0  0  0  0  0  0
   -4.8933   -1.6336    0.1781 C   0  0  3  0  0  0  0  0  0  0  0  0
   -5.2081   -2.0593    1.6313 C   0  0  3  0  0  0  0  0  0  0  0  0
   -4.5630   -3.4390    1.9123 C   0  0  3  0  0  0  0  0  0  0  0  0
   -3.0535   -3.3378    1.6277 C   0  0  3  0  0  0  0  0  0  0  0  0
   -2.7860   -2.8698    0.2908 O   0  0  0  0  0  0  0  0  0  0  0  0
   -2.3290   -4.6843    1.8226 C   0  0  0  0  0  0  0  0  0  0  0  0
   -2.7784   -5.6943    0.9255 O   0  0  0  0  0  0  0  0  0  0  0  0
   -5.1494   -4.4869    1.1178 O   0  0  0  0  0  0  0  0  0  0  0  0
   -6.6597   -2.1111    1.8958 N   0  0  0  0  0  0  0  0  0  0  0  0
   -5.5326   -2.5821   -0.7099 O   0  0  0  0  0  0  0  0  0  0  0  0
   -0.6344   -0.9960    2.3310 O   0  0  0  0  0  0  0  0  0  0  0  0
    1.9409   -1.7834    0.8672 O   0  0  0  0  0  0  0  0  0  0  0  0
    3.0415   -1.9057   -0.0355 C   0  0  3  0  0  0  0  0  0  0  0  0
    3.7245   -3.2909    0.1285 C   0  0  3  0  0  0  0  0  0  0  0  0
    4.4943   -3.3281    1.4606 C   0  0  3  0  0  0  0  0  0  0  0  0
    5.4384   -2.1233    1.6127 C   0  0  3  0  0  0  0  0  0  0  0  0
    4.6439   -0.8244    1.3806 C   0  0  3  0  0  0  0  0  0  0  0  0
    4.0018   -0.8515    0.0811 O   0  0  0  0  0  0  0  0  0  0  0  0
    5.5759    0.4055    1.4664 C   0  0  0  0  0  0  0  0  0  0  0  0
    4.8662    1.6823    1.3035 N   0  0  0  0  0  0  0  0  0  0  0  0
    6.5449   -2.1972    0.6940 O   0  0  0  0  0  0  0  0  0  0  0  0
    5.2320   -4.5563    1.5507 O   0  0  0  0  0  0  0  0  0  0  0  0
    4.6528   -3.6058   -1.0087 N   0  0  0  0  0  0  0  0  0  0  0  0
    1.4808    0.7524    2.4232 N   0  0  0  0  0  0  0  0  0  0  0  0
    0.6562    1.7162   -0.7226 H   0  0  0  0  0  0  0  0  0  0  0  0
    0.6267    2.6618    0.7497 H   0  0  0  0  0  0  0  0  0  0  0  0
    2.3917    0.8981    0.5918 H   0  0  0  0  0  0  0  0  0  0  0  0
    0.9942   -0.7422   -0.6295 H   0  0  0  0  0  0  0  0  0  0  0  0
   -0.5965   -2.1687    0.6663 H   0  0  0  0  0  0  0  0  0  0  0  0
   -1.3546   -0.3237   -0.8934 H   0  0  0  0  0  0  0  0  0  0  0  0
   -1.3645    1.5116    1.5650 H   0  0  0  0  0  0  0  0  0  0  0  0
   -1.5455    2.1831   -1.2861 H   0  0  0  0  0  0  0  0  0  0  0  0
   -1.6286    3.2031   -0.0319 H   0  0  0  0  0  0  0  0  0  0  0  0
   -3.1876   -1.4622   -1.1146 H   0  0  0  0  0  0  0  0  0  0  0  0
   -5.3206   -0.6457   -0.0291 H   0  0  0  0  0  0  0  0  0  0  0  0
   -4.7761   -1.3248    2.3216 H   0  0  0  0  0  0  0  0  0  0  0  0
   -4.7187   -3.7207    2.9614 H   0  0  0  0  0  0  0  0  0  0  0  0
   -2.6200   -2.6299    2.3373 H   0  0  0  0  0  0  0  0  0  0  0  0
   -2.4670   -5.0513    2.8477 H   0  0  0  0  0  0  0  0  0  0  0  0
   -1.2549   -4.5574    1.6463 H   0  0  0  0  0  0  0  0  0  0  0  0
   -3.7605   -5.6404    0.9233 H   0  0  0  0  0  0  0  0  0  0  0  0
   -5.4831   -4.0598    0.2997 H   0  0  0  0  0  0  0  0  0  0  0  0
   -7.0959   -2.6816    1.1667 H   0  0  0  0  0  0  0  0  0  0  0  0
   -7.0631   -1.1807    1.7912 H   0  0  0  0  0  0  0  0  0  0  0  0
   -5.0190   -2.6194   -1.5378 H   0  0  0  0  0  0  0  0  0  0  0  0
   -1.5837   -0.8294    2.4460 H   0  0  0  0  0  0  0  0  0  0  0  0
    2.6563   -1.8704   -1.0611 H   0  0  0  0  0  0  0  0  0  0  0  0
    2.9655   -4.0803    0.1499 H   0  0  0  0  0  0  0  0  0  0  0  0
    3.7782   -3.3257    2.2907 H   0  0  0  0  0  0  0  0  0  0  0  0
    5.8806   -2.1275    2.6161 H   0  0  0  0  0  0  0  0  0  0  0  0
    3.8723   -0.7313    2.1541 H   0  0  0  0  0  0  0  0  0  0  0  0
    6.3422    0.3575    0.6836 H   0  0  0  0  0  0  0  0  0  0  0  0
    6.0804    0.4147    2.4379 H   0  0  0  0  0  0  0  0  0  0  0  0
    4.4628    1.6888    0.3671 H   0  0  0  0  0  0  0  0  0  0  0  0
    5.5376    2.4449    1.3399 H   0  0  0  0  0  0  0  0  0  0  0  0
    6.2836   -2.8069   -0.0217 H   0  0  0  0  0  0  0  0  0  0  0  0
    5.5548   -4.7332    0.6448 H   0  0  0  0  0  0  0  0  0  0  0  0
    4.8998   -2.7206   -1.4638 H   0  0  0  0  0  0  0  0  0  0  0  0
    4.1045   -4.0932   -1.7233 H   0  0  0  0  0  0  0  0  0  0  0  0
    0.6564    0.3304    2.8620 H   0  0  0  0  0  0  0  0  0  0  0  0
    1.5808    1.7170    2.7396 H   0  0  0  0  0  0  0  0  0  0  0  0
  1  2  1  0  0  0  0
  1  6  1  0  0  0  0
  1 34  1  0  0  0  0
  1 35  1  0  0  0  0
  2  3  1  0  0  0  0
  2 33  1  0  0  0  0
  2 36  1  0  0  0  0
  3  4  1  0  0  0  0
  3 21  1  0  0  0  0
  3 37  1  0  0  0  0
  4  5  1  0  0  0  0
  4 20  1  0  0  0  0
  4 38  1  0  0  0  0
  5  6  1  0  0  0  0
  5  8  1  0  0  0  0
  5 39  1  0  0  0  0
  6  7  1  0  0  0  0
  6 40  1  0  0  0  0
  7 41  1  0  0  0  0
  7 42  1  0  0  0  0
  8  9  1  0  0  0  0
  9 10  1  0  0  0  0
  9 14  1  0  0  0  0
  9 43  1  0  0  0  0
 10 11  1  0  0  0  0
 10 19  1  0  0  0  0
 10 44  1  0  0  0  0
 11 12  1  0  0  0  0
 11 18  1  0  0  0  0
 11 45  1  0  0  0  0
 12 13  1  0  0  0  0
 12 17  1  0  0  0  0
 12 46  1  0  0  0  0
 13 14  1  0  0  0  0
 13 15  1  0  0  0  0
 13 47  1  0  0  0  0
 15 16  1  0  0  0  0
 15 48  1  0  0  0  0
 15 49  1  0  0  0  0
 16 50  1  0  0  0  0
 17 51  1  0  0  0  0
 18 52  1  0  0  0  0
 18 53  1  0  0  0  0
 19 54  1  0  0  0  0
 20 55  1  0  0  0  0
 21 22  1  0  0  0  0
 22 23  1  0  0  0  0
 22 27  1  0  0  0  0
 22 56  1  0  0  0  0
 23 24  1  0  0  0  0
 23 32  1  0  0  0  0
 23 57  1  0  0  0  0
 24 25  1  0  0  0  0
 24 31  1  0  0  0  0
 24 58  1  0  0  0  0
 25 26  1  0  0  0  0
 25 30  1  0  0  0  0
 25 59  1  0  0  0  0
 26 27  1  0  0  0  0
 26 28  1  0  0  0  0
 26 60  1  0  0  0  0
 28 29  1  0  0  0  0
 28 61  1  0  0  0  0
 28 62  1  0  0  0  0
 29 63  1  0  0  0  0
 29 64  1  0  0  0  0
 30 65  1  0  0  0  0
 31 66  1  0  0  0  0
 32 67  1  0  0  0  0
 32 68  1  0  0  0  0
 33 69  1  0  0  0  0
 33 70  1  0  0  0  0
M  END
$$$$
Target_lig_4
 OpenBabel04172516563D

 88 91  0  0  1  0  0  0  0  0999 V2000
    0.3124    1.6772   -0.2015 C   0  0  0  0  0  0  0  0  0  0  0  0
    1.3070    0.5942    0.2382 C   0  0  3  0  0  0  0  0  0  0  0  0
    0.7730   -0.7949   -0.1581 C   0  0  3  0  0  0  0  0  0  0  0  0
   -0.6248   -1.0945    0.4392 C   0  0  3  0  0  0  0  0  0  0  0  0
   -1.6095   -0.0179   -0.1476 C   0  0  3  0  0  0  0  0  0  0  0  0
   -1.1487    1.4271    0.2505 C   0  0  3  0  0  0  0  0  0  0  0  0
   -1.9762    2.4779   -0.3831 N   0  0  0  0  0  0  0  0  0  0  0  0
   -3.0181   -0.2705    0.1269 O   0  0  0  0  0  0  0  0  0  0  0  0
   -3.5060   -1.5406   -0.3375 C   0  0  3  0  0  0  0  0  0  0  0  0
   -3.4057   -1.7401   -1.8867 C   0  0  3  0  0  0  0  0  0  0  0  0
   -4.6757   -1.2301   -2.5832 C   0  0  3  0  0  0  0  0  0  0  0  0
   -5.9235   -1.8683   -1.9778 C   0  0  3  0  0  0  0  0  0  0  0  0
   -5.9627   -1.4916   -0.4871 C   0  0  3  0  0  0  0  0  0  0  0  0
   -4.7790   -1.9324    0.2055 O   0  0  0  0  0  0  0  0  0  0  0  0
   -7.2042   -2.1620    0.1519 C   0  0  0  0  0  0  0  0  0  0  0  0
   -7.4061   -1.7746    1.5523 N   0  0  0  0  0  0  0  0  0  0  0  0
   -5.9223   -3.3015   -2.1331 O   0  0  0  0  0  0  0  0  0  0  0  0
   -4.5991   -1.5154   -3.9885 O   0  0  0  0  0  0  0  0  0  0  0  0
   -3.1431   -3.1646   -2.2769 N   0  0  0  0  0  0  0  0  0  0  0  0
   -0.7048   -1.1388    1.8848 O   0  0  0  0  0  0  0  0  0  0  0  0
    0.0232   -2.2032    2.5185 C   0  0  3  0  0  0  0  0  0  0  0  0
   -0.5106   -3.6153    2.1847 C   0  0  3  0  0  0  0  0  0  0  0  0
   -0.8158   -4.2533    3.5466 C   0  0  3  0  0  0  0  0  0  0  0  0
    0.0815   -3.4596    4.4836 C   0  0  3  0  0  0  0  0  0  0  0  0
   -0.0063   -2.1017    3.9618 O   0  0  0  0  0  0  0  0  0  0  0  0
    1.5561   -3.8945    4.6503 C   0  0  0  0  0  0  0  0  0  0  0  0
    2.3638   -3.8048    3.4854 O   0  0  0  0  0  0  0  0  0  0  0  0
   -0.7200   -5.6782    3.4578 O   0  0  0  0  0  0  0  0  0  0  0  0
   -0.8794   -6.4041    4.6821 C   0  0  3  0  0  0  0  0  0  0  0  0
   -0.7522   -7.9335    4.4091 C   0  0  3  0  0  0  0  0  0  0  0  0
   -2.0517   -8.4670    3.7762 C   0  0  3  0  0  0  0  0  0  0  0  0
   -3.3061   -8.0762    4.5713 C   0  0  3  0  0  0  0  0  0  0  0  0
   -3.2966   -6.5572    4.8359 C   0  0  3  0  0  0  0  0  0  0  0  0
   -2.0579   -6.1091    5.4280 O   0  0  0  0  0  0  0  0  0  0  0  0
   -4.4474   -6.1787    5.7969 C   0  0  0  0  0  0  0  0  0  0  0  0
   -4.5123   -4.7314    6.0203 N   0  0  0  0  0  0  0  0  0  0  0  0
   -3.4155   -8.8218    5.7952 O   0  0  0  0  0  0  0  0  0  0  0  0
   -1.9709   -9.8939    3.6455 O   0  0  0  0  0  0  0  0  0  0  0  0
   -0.3912   -8.7095    5.6320 N   0  0  0  0  0  0  0  0  0  0  0  0
    0.4817   -4.3822    1.4759 O   0  0  0  0  0  0  0  0  0  0  0  0
    1.7330   -1.8151    0.1225 O   0  0  0  0  0  0  0  0  0  0  0  0
    1.6192    0.7398    1.6621 N   0  0  0  0  0  0  0  0  0  0  0  0
    0.3463    1.7203   -1.3007 H   0  0  0  0  0  0  0  0  0  0  0  0
    0.6594    2.6632    0.1392 H   0  0  0  0  0  0  0  0  0  0  0  0
    2.2527    0.7593   -0.2964 H   0  0  0  0  0  0  0  0  0  0  0  0
    0.6672   -0.8039   -1.2507 H   0  0  0  0  0  0  0  0  0  0  0  0
   -0.9077   -2.0833    0.0680 H   0  0  0  0  0  0  0  0  0  0  0  0
   -1.4991   -0.0351   -1.2360 H   0  0  0  0  0  0  0  0  0  0  0  0
   -1.2370    1.5536    1.3343 H   0  0  0  0  0  0  0  0  0  0  0  0
   -1.8366    2.4878   -1.3915 H   0  0  0  0  0  0  0  0  0  0  0  0
   -1.6554    3.3902   -0.0548 H   0  0  0  0  0  0  0  0  0  0  0  0
   -2.8584   -2.2810    0.1282 H   0  0  0  0  0  0  0  0  0  0  0  0
   -2.5748   -1.1883   -2.3274 H   0  0  0  0  0  0  0  0  0  0  0  0
   -4.7399   -0.1396   -2.4873 H   0  0  0  0  0  0  0  0  0  0  0  0
   -6.8176   -1.5104   -2.4998 H   0  0  0  0  0  0  0  0  0  0  0  0
   -6.0398   -0.4020   -0.3786 H   0  0  0  0  0  0  0  0  0  0  0  0
   -7.1045   -3.2543    0.1231 H   0  0  0  0  0  0  0  0  0  0  0  0
   -8.1046   -1.8939   -0.4115 H   0  0  0  0  0  0  0  0  0  0  0  0
   -6.5833   -2.0775    2.0777 H   0  0  0  0  0  0  0  0  0  0  0  0
   -8.1951   -2.2982    1.9290 H   0  0  0  0  0  0  0  0  0  0  0  0
   -5.1245   -3.5382   -2.6430 H   0  0  0  0  0  0  0  0  0  0  0  0
   -4.1118   -2.3599   -4.0652 H   0  0  0  0  0  0  0  0  0  0  0  0
   -3.4710   -3.7621   -1.5063 H   0  0  0  0  0  0  0  0  0  0  0  0
   -2.1313   -3.3134   -2.2912 H   0  0  0  0  0  0  0  0  0  0  0  0
    1.0761   -2.0941    2.2613 H   0  0  0  0  0  0  0  0  0  0  0  0
   -1.4084   -3.6061    1.5603 H   0  0  0  0  0  0  0  0  0  0  0  0
   -1.8552   -3.9979    3.7877 H   0  0  0  0  0  0  0  0  0  0  0  0
   -0.3572   -3.4484    5.4884 H   0  0  0  0  0  0  0  0  0  0  0  0
    1.6320   -4.9181    5.0225 H   0  0  0  0  0  0  0  0  0  0  0  0
    2.0333   -3.2507    5.3974 H   0  0  0  0  0  0  0  0  0  0  0  0
    1.9553   -4.3068    2.7562 H   0  0  0  0  0  0  0  0  0  0  0  0
   -0.0417   -6.1291    5.3279 H   0  0  0  0  0  0  0  0  0  0  0  0
    0.0551   -8.1121    3.6856 H   0  0  0  0  0  0  0  0  0  0  0  0
   -2.1467   -8.0610    2.7577 H   0  0  0  0  0  0  0  0  0  0  0  0
   -4.2000   -8.3503    3.9977 H   0  0  0  0  0  0  0  0  0  0  0  0
   -3.4262   -6.0259    3.8847 H   0  0  0  0  0  0  0  0  0  0  0  0
   -4.2983   -6.6513    6.7756 H   0  0  0  0  0  0  0  0  0  0  0  0
   -5.4073   -6.5218    5.3934 H   0  0  0  0  0  0  0  0  0  0  0  0
   -3.6425   -4.4441    6.4729 H   0  0  0  0  0  0  0  0  0  0  0  0
   -5.2534   -4.5342    6.6938 H   0  0  0  0  0  0  0  0  0  0  0  0
   -2.6404   -8.6219    6.3426 H   0  0  0  0  0  0  0  0  0  0  0  0
   -1.7456  -10.2129    4.5447 H   0  0  0  0  0  0  0  0  0  0  0  0
   -0.7295   -8.2237    6.4636 H   0  0  0  0  0  0  0  0  0  0  0  0
    0.6293   -8.6826    5.7345 H   0  0  0  0  0  0  0  0  0  0  0  0
    0.2336   -5.3182    1.6207 H   0  0  0  0  0  0  0  0  0  0  0  0
    1.3446   -2.6832   -0.0930 H   0  0  0  0  0  0  0  0  0  0  0  0
    0.8238    0.4347    2.2288 H   0  0  0  0  0  0  0  0  0  0  0  0
    2.3633    0.0738    1.8909 H   0  0  0  0  0  0  0  0  0  0  0  0
  1  2  1  0  0  0  0
  1  6  1  0  0  0  0
  1 43  1  0  0  0  0
  1 44  1  0  0  0  0
  2  3  1  0  0  0  0
  2 42  1  0  0  0  0
  2 45  1  0  0  0  0
  3  4  1  0  0  0  0
  3 41  1  0  0  0  0
  3 46  1  0  0  0  0
  4  5  1  0  0  0  0
  4 20  1  0  0  0  0
  4 47  1  0  0  0  0
  5  6  1  0  0  0  0
  5  8  1  0  0  0  0
  5 48  1  0  0  0  0
  6  7  1  0  0  0  0
  6 49  1  0  0  0  0
  7 50  1  0  0  0  0
  7 51  1  0  0  0  0
  8  9  1  0  0  0  0
  9 10  1  0  0  0  0
  9 14  1  0  0  0  0
  9 52  1  0  0  0  0
 10 11  1  0  0  0  0
 10 19  1  0  0  0  0
 10 53  1  0  0  0  0
 11 12  1  0  0  0  0
 11 18  1  0  0  0  0
 11 54  1  0  0  0  0
 12 13  1  0  0  0  0
 12 17  1  0  0  0  0
 12 55  1  0  0  0  0
 13 14  1  0  0  0  0
 13 15  1  0  0  0  0
 13 56  1  0  0  0  0
 15 16  1  0  0  0  0
 15 57  1  0  0  0  0
 15 58  1  0  0  0  0
 16 59  1  0  0  0  0
 16 60  1  0  0  0  0
 17 61  1  0  0  0  0
 18 62  1  0  0  0  0
 19 63  1  0  0  0  0
 19 64  1  0  0  0  0
 20 21  1  0  0  0  0
 21 22  1  0  0  0  0
 21 25  1  0  0  0  0
 21 65  1  0  0  0  0
 22 23  1  0  0  0  0
 22 40  1  0  0  0  0
 22 66  1  0  0  0  0
 23 24  1  0  0  0  0
 23 28  1  0  0  0  0
 23 67  1  0  0  0  0
 24 25  1  0  0  0  0
 24 26  1  0  0  0  0
 24 68  1  0  0  0  0
 26 27  1  0  0  0  0
 26 69  1  0  0  0  0
 26 70  1  0  0  0  0
 27 71  1  0  0  0  0
 28 29  1  0  0  0  0
 29 30  1  0  0  0  0
 29 34  1  0  0  0  0
 29 72  1  0  0  0  0
 30 31  1  0  0  0  0
 30 39  1  0  0  0  0
 30 73  1  0  0  0  0
 31 32  1  0  0  0  0
 31 38  1  0  0  0  0
 31 74  1  0  0  0  0
 32 33  1  0  0  0  0
 32 37  1  0  0  0  0
 32 75  1  0  0  0  0
 33 34  1  0  0  0  0
 33 35  1  0  0  0  0
 33 76  1  0  0  0  0
 35 36  1  0  0  0  0
 35 77  1  0  0  0  0
 35 78  1  0  0  0  0
 36 79  1  0  0  0  0
 36 80  1  0  0  0  0
 37 81  1  0  0  0  0
 38 82  1  0  0  0  0
 39 83  1  0  0  0  0
 39 84  1  0  0  0  0
 40 85  1  0  0  0  0
 41 86  1  0  0  0  0
 42 87  1  0  0  0  0
 42 88  1  0  0  0  0
M  END
$$$$
Target_lig_1253
 OpenBabel04172516563D

 45 47  0  0  0  0  0  0  0  0999 V2000
    3.6492    0.3513   -0.7155 C   0  0  0  0  0  0  0  0  0  0  0  0
    3.5416   -1.0262   -0.5556 C   0  0  0  0  0  0  0  0  0  0  0  0
    2.3561   -1.5839   -0.0701 C   0  0  0  0  0  0  0  0  0  0  0  0
    1.2468   -0.7791    0.2402 C   0  0  0  0  0  0  0  0  0  0  0  0
    1.3586    0.6117    0.0381 C   0  0  0  0  0  0  0  0  0  0  0  0
    2.5632    1.1702   -0.4116 C   0  0  0  0  0  0  0  0  0  0  0  0
   -0.0175    1.7117    0.3387 S   0  0  0  0  0  0  0  0  0  0  0  0
   -1.3763    0.5800    0.0794 C   0  0  0  0  0  0  0  0  0  0  0  0
   -1.2346   -0.8039    0.3099 C   0  0  0  0  0  0  0  0  0  0  0  0
    0.0205   -1.3744    0.6265 N   0  0  0  0  0  0  0  0  0  0  0  0
    0.0720   -2.2752    1.8031 C   0  0  0  0  0  0  0  0  0  0  0  0
    0.3065   -1.5045    3.1114 C   0  0  0  0  0  0  0  0  0  0  0  0
    0.3458   -2.4317    4.3375 C   0  0  0  0  0  0  0  0  0  0  0  0
    1.3543   -3.5046    4.2642 N   0  0  0  0  0  0  0  0  0  0  0  0
    2.7180   -2.9730    4.2009 C   0  0  0  0  0  0  0  0  0  0  0  0
    1.2340   -4.3958    5.4241 C   0  0  0  0  0  0  0  0  0  0  0  0
   -2.3380   -1.6412    0.0630 C   0  0  0  0  0  0  0  0  0  0  0  0
   -3.5428   -1.1214   -0.4202 C   0  0  0  0  0  0  0  0  0  0  0  0
   -3.6764    0.2578   -0.6118 C   0  0  0  0  0  0  0  0  0  0  0  0
   -2.5979    1.1054   -0.3594 C   0  0  0  0  0  0  0  0  0  0  0  0
   -4.6936   -1.9945   -0.7746 C   0  0  0  0  0  0  0  0  0  0  0  0
   -5.8353   -1.5327   -0.7278 O   0  0  0  0  0  0  0  0  0  0  0  0
   -4.4521   -3.4155   -1.2179 C   0  0  0  0  0  0  0  0  0  0  0  0
    4.5692    0.7873   -1.0960 H   0  0  0  0  0  0  0  0  0  0  0  0
    4.3711   -1.6728   -0.8300 H   0  0  0  0  0  0  0  0  0  0  0  0
    2.2831   -2.6659   -0.0001 H   0  0  0  0  0  0  0  0  0  0  0  0
    2.6529    2.2448   -0.5515 H   0  0  0  0  0  0  0  0  0  0  0  0
    0.8494   -3.0322    1.6605 H   0  0  0  0  0  0  0  0  0  0  0  0
   -0.8590   -2.8472    1.9053 H   0  0  0  0  0  0  0  0  0  0  0  0
   -0.5010   -0.7759    3.2580 H   0  0  0  0  0  0  0  0  0  0  0  0
    1.2301   -0.9173    3.0571 H   0  0  0  0  0  0  0  0  0  0  0  0
   -0.6493   -2.8892    4.4336 H   0  0  0  0  0  0  0  0  0  0  0  0
    0.4982   -1.8231    5.2387 H   0  0  0  0  0  0  0  0  0  0  0  0
    2.8831   -2.4221    3.2693 H   0  0  0  0  0  0  0  0  0  0  0  0
    3.4508   -3.7883    4.1950 H   0  0  0  0  0  0  0  0  0  0  0  0
    2.9453   -2.3098    5.0430 H   0  0  0  0  0  0  0  0  0  0  0  0
    0.2355   -4.8459    5.4643 H   0  0  0  0  0  0  0  0  0  0  0  0
    1.4182   -3.8733    6.3687 H   0  0  0  0  0  0  0  0  0  0  0  0
    1.9453   -5.2258    5.3437 H   0  0  0  0  0  0  0  0  0  0  0  0
   -2.2247   -2.7118    0.2022 H   0  0  0  0  0  0  0  0  0  0  0  0
   -4.6098    0.6736   -0.9859 H   0  0  0  0  0  0  0  0  0  0  0  0
   -2.7089    2.1727   -0.5365 H   0  0  0  0  0  0  0  0  0  0  0  0
   -3.3957   -3.6428   -1.3697 H   0  0  0  0  0  0  0  0  0  0  0  0
   -4.9522   -3.5670   -2.1795 H   0  0  0  0  0  0  0  0  0  0  0  0
   -4.8661   -4.1007   -0.4750 H   0  0  0  0  0  0  0  0  0  0  0  0
  1  2  1  0  0  0  0
  1  6  2  0  0  0  0
  1 24  1  0  0  0  0
  2  3  2  0  0  0  0
  2 25  1  0  0  0  0
  3  4  1  0  0  0  0
  3 26  1  0  0  0  0
  4  5  2  0  0  0  0
  4 10  1  0  0  0  0
  5  6  1  0  0  0  0
  5  7  1  0  0  0  0
  6 27  1  0  0  0  0
  7  8  1  0  0  0  0
  8  9  1  0  0  0  0
  8 20  2  0  0  0  0
  9 10  1  0  0  0  0
  9 17  2  0  0  0  0
 10 11  1  0  0  0  0
 11 12  1  0  0  0  0
 11 28  1  0  0  0  0
 11 29  1  0  0  0  0
 12 13  1  0  0  0  0
 12 30  1  0  0  0  0
 12 31  1  0  0  0  0
 13 14  1  0  0  0  0
 13 32  1  0  0  0  0
 13 33  1  0  0  0  0
 14 15  1  0  0  0  0
 14 16  1  0  0  0  0
 15 34  1  0  0  0  0
 15 35  1  0  0  0  0
 15 36  1  0  0  0  0
 16 37  1  0  0  0  0
 16 38  1  0  0  0  0
 16 39  1  0  0  0  0
 17 18  1  0  0  0  0
 17 40  1  0  0  0  0
 18 19  2  0  0  0  0
 18 21  1  0  0  0  0
 19 20  1  0  0  0  0
 19 41  1  0  0  0  0
 20 42  1  0  0  0  0
 21 22  2  0  0  0  0
 21 23  1  0  0  0  0
 23 43  1  0  0  0  0
 23 44  1  0  0  0  0
 23 45  1  0  0  0  0
M  END
$$$$
Target_lig_564
 OpenBabel04172516563D

182189  0  0  1  0  0  0  0  0999 V2000
    0.5892    2.6546   -0.8272 N   0  0  0  0  0  0  0  0  0  0  0  0
    0.1985    1.3355   -1.3562 C   0  0  1  0  0  0  0  0  0  0  0  0
    1.0531    0.1134   -0.8183 C   0  0  0  0  0  0  0  0  0  0  0  0
    0.5515   -0.8081   -0.1747 O   0  0  0  0  0  0  0  0  0  0  0  0
    2.4077    0.0669   -1.1809 N   0  0  0  0  0  0  0  0  0  0  0  0
    3.1616   -1.2123   -1.1921 C   0  0  1  0  0  0  0  0  0  0  0  0
    4.5313   -0.7542   -1.7536 C   0  0  0  0  0  0  0  0  0  0  0  0
    4.2821    0.4613   -2.6210 C   0  0  0  0  0  0  0  0  0  0  0  0
    2.8841    0.9075   -2.2739 C   0  0  0  0  0  0  0  0  0  0  0  0
    3.5584   -2.2371   -0.0607 C   0  0  0  0  0  0  0  0  0  0  0  0
    4.3364   -3.1588   -0.3471 O   0  0  0  0  0  0  0  0  0  0  0  0
    3.0446   -2.1598    1.2106 N   0  0  0  0  0  0  0  0  0  0  0  0
    3.3467   -3.2430    2.1966 C   0  0  1  0  0  0  0  0  0  0  0  0
    4.7394   -3.1609    2.8949 C   0  0  0  0  0  0  0  0  0  0  0  0
    4.9967   -2.1507    4.0008 C   0  0  0  0  0  0  0  0  0  0  0  0
    5.8543   -2.4982    5.0658 C   0  0  0  0  0  0  0  0  0  0  0  0
    6.1072   -1.6080    6.1164 C   0  0  0  0  0  0  0  0  0  0  0  0
    5.5246   -0.3463    6.1095 C   0  0  0  0  0  0  0  0  0  0  0  0
    4.7182    0.0320    5.0384 C   0  0  0  0  0  0  0  0  0  0  0  0
    4.4652   -0.8587    3.9858 C   0  0  0  0  0  0  0  0  0  0  0  0
    2.1953   -3.4529    3.2094 C   0  0  0  0  0  0  0  0  0  0  0  0
    1.2475   -2.6743    3.2730 O   0  0  0  0  0  0  0  0  0  0  0  0
    2.2830   -4.5913    3.9935 N   0  0  0  0  0  0  0  0  0  0  0  0
    1.2816   -4.9151    4.9993 C   0  0  0  0  0  0  0  0  0  0  0  0
    0.2717   -5.9528    4.5039 C   0  0  0  0  0  0  0  0  0  0  0  0
   -0.8497   -6.2282    5.5161 C   0  0  0  0  0  0  0  0  0  0  0  0
   -1.7241   -5.0134    5.8511 C   0  0  0  0  0  0  0  0  0  0  0  0
   -2.4508   -4.4007    4.6469 C   0  0  0  0  0  0  0  0  0  0  0  0
   -3.4308   -5.3436    3.9444 C   0  0  0  0  0  0  0  0  0  0  0  0
   -4.5104   -5.7616    4.8323 N   0  0  0  0  0  0  0  0  0  0  0  0
   -1.3145    1.0513   -1.3578 C   0  0  0  0  0  0  0  0  0  0  0  0
   -2.1730    2.2844   -2.4380 S   0  0  0  0  0  0  0  0  0  0  0  0
   -4.0884    1.5537   -2.5960 S   0  0  0  0  0  0  0  0  0  0  0  0
   -4.7467    1.7637   -0.9072 C   0  0  0  0  0  0  0  0  0  0  0  0
   -4.7930    3.2068   -0.3366 C   0  0  1  0  0  0  0  0  0  0  0  0
   -5.8973    4.0252   -0.9540 N   0  0  0  0  0  0  0  0  0  0  0  0
   -5.7109    5.3224   -1.4423 C   0  0  0  0  0  0  0  0  0  0  0  0
   -4.6226    5.8806   -1.3243 O   0  0  0  0  0  0  0  0  0  0  0  0
   -6.8740    6.0935   -2.0520 C   0  0  0  0  0  0  0  0  0  0  0  0
   -6.7031    7.3384   -2.6802 C   0  0  0  0  0  0  0  0  0  0  0  0
   -7.7358    8.1951   -2.9207 N   0  0  0  0  0  0  0  0  0  0  0  0
   -8.9974    7.8552   -2.6309 C   0  0  0  0  0  0  0  0  0  0  0  0
   -9.2930    6.5525   -2.2139 C   0  0  0  0  0  0  0  0  0  0  0  0
  -10.6507    6.1997   -2.0532 C   0  0  0  0  0  0  0  0  0  0  0  0
  -11.6606    7.1593   -2.1863 C   0  0  0  0  0  0  0  0  0  0  0  0
  -11.3352    8.4758   -2.4881 C   0  0  0  0  0  0  0  0  0  0  0  0
  -10.0039    8.8040   -2.7408 C   0  0  0  0  0  0  0  0  0  0  0  0
   -8.2129    5.6796   -1.9180 C   0  0  0  0  0  0  0  0  0  0  0  0
   -5.4282    7.8730   -3.2835 C   0  0  0  0  0  0  0  0  0  0  0  0
   -4.8680    9.0597   -2.5140 C   0  0  0  0  0  0  0  0  0  0  0  0
   -4.8823    2.9473    1.2206 C   0  0  0  0  0  0  0  0  0  0  0  0
   -5.6452    2.0817    1.6631 O   0  0  0  0  0  0  0  0  0  0  0  0
   -4.1277    3.7077    2.0923 N   0  0  0  0  0  0  0  0  0  0  0  0
   -3.8199    3.3065    3.4865 C   0  0  1  0  0  0  0  0  0  0  0  0
   -3.2073    4.6154    4.0213 C   0  0  0  0  0  0  0  0  0  0  0  0
   -2.3685    5.1077    2.8629 C   0  0  0  0  0  0  0  0  0  0  0  0
   -3.0758    4.5915    1.6226 C   0  0  0  0  0  0  0  0  0  0  0  0
   -4.7988    2.8250    4.5780 C   0  0  0  0  0  0  0  0  0  0  0  0
   -4.3902    2.6001    5.7255 O   0  0  0  0  0  0  0  0  0  0  0  0
   -6.1205    2.6619    4.2418 N   0  0  0  0  0  0  0  0  0  0  0  0
   -7.1172    2.1692    5.2074 C   0  0  1  0  0  0  0  0  0  0  0  0
   -7.2563    3.0899    6.4543 C   0  0  0  0  0  0  0  0  0  0  0  0
   -7.5886    4.5654    6.3253 C   0  0  0  0  0  0  0  0  0  0  0  0
   -7.8332    5.2084    5.1088 C   0  0  0  0  0  0  0  0  0  0  0  0
   -8.0794    6.5849    5.0628 C   0  0  0  0  0  0  0  0  0  0  0  0
   -8.0926    7.3401    6.2330 C   0  0  0  0  0  0  0  0  0  0  0  0
   -7.8625    6.7186    7.4553 C   0  0  0  0  0  0  0  0  0  0  0  0
   -7.6146    5.3447    7.5009 C   0  0  0  0  0  0  0  0  0  0  0  0
   -8.4506    1.8355    4.4651 C   0  0  0  0  0  0  0  0  0  0  0  0
   -8.4681    1.6179    3.2532 O   0  0  0  0  0  0  0  0  0  0  0  0
   -9.5782    1.6771    5.2427 N   0  0  0  0  0  0  0  0  0  0  0  0
  -10.9024    1.4462    4.6835 C   0  0  0  0  0  0  0  0  0  0  0  0
  -11.2085   -0.0078    4.3126 C   0  0  0  0  0  0  0  0  0  0  0  0
  -11.0625   -0.9911    5.4789 C   0  0  0  0  0  0  0  0  0  0  0  0
  -11.3702   -2.4444    5.0871 C   0  0  0  0  0  0  0  0  0  0  0  0
  -10.5075   -3.0089    3.9492 C   0  0  0  0  0  0  0  0  0  0  0  0
   -8.9971   -2.9156    4.1779 C   0  0  0  0  0  0  0  0  0  0  0  0
   -8.5806   -3.7171    5.3228 N   0  0  0  0  0  0  0  0  0  0  0  0
    0.1793    3.1818    0.3766 C   0  0  0  0  0  0  0  0  0  0  0  0
   -0.5361    2.5641    1.1563 O   0  0  0  0  0  0  0  0  0  0  0  0
    0.7569    4.5131    0.7768 C   0  0  0  0  0  0  0  0  0  0  0  0
    1.3426    5.4178   -0.1297 C   0  0  0  0  0  0  0  0  0  0  0  0
    2.3803    6.2064    0.3916 C   0  0  0  0  0  0  0  0  0  0  0  0
    2.6012    6.3608    1.7058 N   0  0  0  0  0  0  0  0  0  0  0  0
    1.8762    5.6298    2.5751 C   0  0  0  0  0  0  0  0  0  0  0  0
    0.9951    4.6585    2.1426 C   0  0  0  0  0  0  0  0  0  0  0  0
    2.2769    5.6834    4.0254 C   0  0  0  0  0  0  0  0  0  0  0  0
    3.1349    4.4634    4.3326 C   0  0  0  0  0  0  0  0  0  0  0  0
    3.3015    6.7298   -0.4992 C   0  0  0  0  0  0  0  0  0  0  0  0
    3.1551    6.5731   -1.8787 C   0  0  0  0  0  0  0  0  0  0  0  0
    1.9809    6.0359   -2.3864 C   0  0  0  0  0  0  0  0  0  0  0  0
    1.0473    5.5008   -1.5102 C   0  0  0  0  0  0  0  0  0  0  0  0
    1.2604    3.1742   -1.3724 H   0  0  0  0  0  0  0  0  0  0  0  0
    0.4512    1.4093   -2.4203 H   0  0  0  0  0  0  0  0  0  0  0  0
    2.6511   -1.8259   -1.9512 H   0  0  0  0  0  0  0  0  0  0  0  0
    5.0438   -1.5444   -2.3126 H   0  0  0  0  0  0  0  0  0  0  0  0
    5.1910   -0.4608   -0.9264 H   0  0  0  0  0  0  0  0  0  0  0  0
    4.3597    0.2239   -3.6880 H   0  0  0  0  0  0  0  0  0  0  0  0
    5.0087    1.2542   -2.4139 H   0  0  0  0  0  0  0  0  0  0  0  0
    2.2442    0.7477   -3.1511 H   0  0  0  0  0  0  0  0  0  0  0  0
    2.8497    1.9624   -1.9993 H   0  0  0  0  0  0  0  0  0  0  0  0
    2.1406   -1.6953    1.3122 H   0  0  0  0  0  0  0  0  0  0  0  0
    3.3616   -4.1738    1.6095 H   0  0  0  0  0  0  0  0  0  0  0  0
    5.5301   -3.0439    2.1438 H   0  0  0  0  0  0  0  0  0  0  0  0
    4.9117   -4.1484    3.3492 H   0  0  0  0  0  0  0  0  0  0  0  0
    6.3370   -3.4732    5.0925 H   0  0  0  0  0  0  0  0  0  0  0  0
    6.7549   -1.9011    6.9389 H   0  0  0  0  0  0  0  0  0  0  0  0
    5.7022    0.3435    6.9316 H   0  0  0  0  0  0  0  0  0  0  0  0
    4.2802    1.0263    5.0192 H   0  0  0  0  0  0  0  0  0  0  0  0
    3.8450   -0.5211    3.1609 H   0  0  0  0  0  0  0  0  0  0  0  0
    3.0652   -5.2244    3.8940 H   0  0  0  0  0  0  0  0  0  0  0  0
    0.7839   -3.9901    5.2988 H   0  0  0  0  0  0  0  0  0  0  0  0
    1.8139   -5.3078    5.8724 H   0  0  0  0  0  0  0  0  0  0  0  0
    0.7950   -6.8972    4.3037 H   0  0  0  0  0  0  0  0  0  0  0  0
   -0.1550   -5.6428    3.5431 H   0  0  0  0  0  0  0  0  0  0  0  0
   -0.4103   -6.6088    6.4467 H   0  0  0  0  0  0  0  0  0  0  0  0
   -1.4819   -7.0392    5.1343 H   0  0  0  0  0  0  0  0  0  0  0  0
   -1.1137   -4.2368    6.3249 H   0  0  0  0  0  0  0  0  0  0  0  0
   -2.4540   -5.3040    6.6158 H   0  0  0  0  0  0  0  0  0  0  0  0
   -1.7164   -4.0448    3.9140 H   0  0  0  0  0  0  0  0  0  0  0  0
   -2.9905   -3.5066    4.9830 H   0  0  0  0  0  0  0  0  0  0  0  0
   -2.9110   -6.2257    3.5562 H   0  0  0  0  0  0  0  0  0  0  0  0
   -3.8665   -4.8278    3.0819 H   0  0  0  0  0  0  0  0  0  0  0  0
   -4.1312   -6.2637    5.6326 H   0  0  0  0  0  0  0  0  0  0  0  0
   -5.1147   -6.4216    4.3448 H   0  0  0  0  0  0  0  0  0  0  0  0
   -1.7401    1.1067   -0.3544 H   0  0  0  0  0  0  0  0  0  0  0  0
   -1.5006    0.0499   -1.7588 H   0  0  0  0  0  0  0  0  0  0  0  0
   -4.1305    1.1156   -0.2696 H   0  0  0  0  0  0  0  0  0  0  0  0
   -5.7508    1.3230   -0.8940 H   0  0  0  0  0  0  0  0  0  0  0  0
   -3.8482    3.7012   -0.5598 H   0  0  0  0  0  0  0  0  0  0  0  0
   -6.8008    3.5798   -1.0038 H   0  0  0  0  0  0  0  0  0  0  0  0
  -10.9270    5.1811   -1.7988 H   0  0  0  0  0  0  0  0  0  0  0  0
  -12.7009    6.8831   -2.0303 H   0  0  0  0  0  0  0  0  0  0  0  0
  -12.1038    9.2428   -2.5359 H   0  0  0  0  0  0  0  0  0  0  0  0
   -9.7425    9.8318   -2.9916 H   0  0  0  0  0  0  0  0  0  0  0  0
   -8.4502    4.6967   -1.5247 H   0  0  0  0  0  0  0  0  0  0  0  0
   -5.6898    8.2336   -4.2918 H   0  0  0  0  0  0  0  0  0  0  0  0
   -4.6760    7.1002   -3.4550 H   0  0  0  0  0  0  0  0  0  0  0  0
   -5.6572    9.7153   -2.1282 H   0  0  0  0  0  0  0  0  0  0  0  0
   -4.2283    9.6663   -3.1649 H   0  0  0  0  0  0  0  0  0  0  0  0
   -4.2676    8.7195   -1.6670 H   0  0  0  0  0  0  0  0  0  0  0  0
   -3.0440    2.5282    3.4210 H   0  0  0  0  0  0  0  0  0  0  0  0
   -2.6134    4.4858    4.9330 H   0  0  0  0  0  0  0  0  0  0  0  0
   -3.9962    5.3474    4.2373 H   0  0  0  0  0  0  0  0  0  0  0  0
   -1.3877    4.6510    2.9559 H   0  0  0  0  0  0  0  0  0  0  0  0
   -2.2312    6.1916    2.8467 H   0  0  0  0  0  0  0  0  0  0  0  0
   -2.3856    4.0089    1.0100 H   0  0  0  0  0  0  0  0  0  0  0  0
   -3.4930    5.3870    1.0064 H   0  0  0  0  0  0  0  0  0  0  0  0
   -6.2839    2.4250    3.2590 H   0  0  0  0  0  0  0  0  0  0  0  0
   -6.7386    1.2026    5.5670 H   0  0  0  0  0  0  0  0  0  0  0  0
   -6.3076    3.0530    7.0165 H   0  0  0  0  0  0  0  0  0  0  0  0
   -7.9852    2.6549    7.1454 H   0  0  0  0  0  0  0  0  0  0  0  0
   -7.8136    4.6656    4.1681 H   0  0  0  0  0  0  0  0  0  0  0  0
   -8.2506    7.0709    4.1063 H   0  0  0  0  0  0  0  0  0  0  0  0
   -8.2741    8.4107    6.1924 H   0  0  0  0  0  0  0  0  0  0  0  0
   -7.8611    7.3040    8.3721 H   0  0  0  0  0  0  0  0  0  0  0  0
   -7.4152    4.8842    8.4674 H   0  0  0  0  0  0  0  0  0  0  0  0
   -9.5668    2.0208    6.1917 H   0  0  0  0  0  0  0  0  0  0  0  0
  -11.0180    2.0758    3.7938 H   0  0  0  0  0  0  0  0  0  0  0  0
  -11.6242    1.7924    5.4310 H   0  0  0  0  0  0  0  0  0  0  0  0
  -10.5639   -0.3035    3.4796 H   0  0  0  0  0  0  0  0  0  0  0  0
  -12.2425   -0.0572    3.9457 H   0  0  0  0  0  0  0  0  0  0  0  0
  -11.7473   -0.7014    6.2858 H   0  0  0  0  0  0  0  0  0  0  0  0
  -10.0529   -0.9328    5.8989 H   0  0  0  0  0  0  0  0  0  0  0  0
  -12.4250   -2.5255    4.7957 H   0  0  0  0  0  0  0  0  0  0  0  0
  -11.2574   -3.0778    5.9759 H   0  0  0  0  0  0  0  0  0  0  0  0
  -10.7558   -2.4927    3.0142 H   0  0  0  0  0  0  0  0  0  0  0  0
  -10.7851   -4.0588    3.7868 H   0  0  0  0  0  0  0  0  0  0  0  0
   -8.6866   -1.8754    4.3209 H   0  0  0  0  0  0  0  0  0  0  0  0
   -8.4776   -3.2801    3.2854 H   0  0  0  0  0  0  0  0  0  0  0  0
   -9.0143   -3.3628    6.1726 H   0  0  0  0  0  0  0  0  0  0  0  0
   -7.5732   -3.6132    5.4540 H   0  0  0  0  0  0  0  0  0  0  0  0
    0.5881    3.9477    2.8562 H   0  0  0  0  0  0  0  0  0  0  0  0
    1.3889    5.7068    4.6689 H   0  0  0  0  0  0  0  0  0  0  0  0
    2.8428    6.6011    4.2233 H   0  0  0  0  0  0  0  0  0  0  0  0
    2.5324    3.5476    4.3043 H   0  0  0  0  0  0  0  0  0  0  0  0
    3.5871    4.5395    5.3230 H   0  0  0  0  0  0  0  0  0  0  0  0
    3.9340    4.3506    3.5903 H   0  0  0  0  0  0  0  0  0  0  0  0
    4.1966    7.2030   -0.1015 H   0  0  0  0  0  0  0  0  0  0  0  0
    3.9527    6.8870   -2.5457 H   0  0  0  0  0  0  0  0  0  0  0  0
    1.8140    5.9885   -3.4591 H   0  0  0  0  0  0  0  0  0  0  0  0
    0.1195    5.0848   -1.9042 H   0  0  0  0  0  0  0  0  0  0  0  0
  1  2  1  0  0  0  0
  1 79  1  0  0  0  0
  1 93  1  0  0  0  0
  2  3  1  0  0  0  0
  2 31  1  0  0  0  0
  2 94  1  6  0  0  0
  3  4  2  0  0  0  0
  3  5  1  0  0  0  0
  5  6  1  0  0  0  0
  5  9  1  0  0  0  0
  6  7  1  0  0  0  0
  6 10  1  0  0  0  0
  6 95  1  6  0  0  0
  7  8  1  0  0  0  0
  7 96  1  0  0  0  0
  7 97  1  0  0  0  0
  8  9  1  0  0  0  0
  8 98  1  0  0  0  0
  8 99  1  0  0  0  0
  9100  1  0  0  0  0
  9101  1  0  0  0  0
 10 11  2  0  0  0  0
 10 12  1  0  0  0  0
 12 13  1  0  0  0  0
 12102  1  0  0  0  0
 13 14  1  0  0  0  0
 13 21  1  0  0  0  0
 13103  1  6  0  0  0
 14 15  1  0  0  0  0
 14104  1  0  0  0  0
 14105  1  0  0  0  0
 15 16  1  0  0  0  0
 15 20  2  0  0  0  0
 16 17  2  0  0  0  0
 16106  1  0  0  0  0
 17 18  1  0  0  0  0
 17107  1  0  0  0  0
 18 19  2  0  0  0  0
 18108  1  0  0  0  0
 19 20  1  0  0  0  0
 19109  1  0  0  0  0
 20110  1  0  0  0  0
 21 22  2  0  0  0  0
 21 23  1  0  0  0  0
 23 24  1  0  0  0  0
 23111  1  0  0  0  0
 24 25  1  0  0  0  0
 24112  1  0  0  0  0
 24113  1  0  0  0  0
 25 26  1  0  0  0  0
 25114  1  0  0  0  0
 25115  1  0  0  0  0
 26 27  1  0  0  0  0
 26116  1  0  0  0  0
 26117  1  0  0  0  0
 27 28  1  0  0  0  0
 27118  1  0  0  0  0
 27119  1  0  0  0  0
 28 29  1  0  0  0  0
 28120  1  0  0  0  0
 28121  1  0  0  0  0
 29 30  1  0  0  0  0
 29122  1  0  0  0  0
 29123  1  0  0  0  0
 30124  1  0  0  0  0
 30125  1  0  0  0  0
 31 32  1  0  0  0  0
 31126  1  0  0  0  0
 31127  1  0  0  0  0
 32 33  1  0  0  0  0
 33 34  1  0  0  0  0
 34 35  1  0  0  0  0
 34128  1  0  0  0  0
 34129  1  0  0  0  0
 35 36  1  0  0  0  0
 35 51  1  0  0  0  0
 35130  1  6  0  0  0
 36 37  1  0  0  0  0
 36131  1  0  0  0  0
 37 38  2  0  0  0  0
 37 39  1  0  0  0  0
 39 40  1  0  0  0  0
 39 48  2  0  0  0  0
 40 41  2  0  0  0  0
 40 49  1  0  0  0  0
 41 42  1  0  0  0  0
 42 43  1  0  0  0  0
 42 47  2  0  0  0  0
 43 44  2  0  0  0  0
 43 48  1  0  0  0  0
 44 45  1  0  0  0  0
 44132  1  0  0  0  0
 45 46  2  0  0  0  0
 45133  1  0  0  0  0
 46 47  1  0  0  0  0
 46134  1  0  0  0  0
 47135  1  0  0  0  0
 48136  1  0  0  0  0
 49 50  1  0  0  0  0
 49137  1  0  0  0  0
 49138  1  0  0  0  0
 50139  1  0  0  0  0
 50140  1  0  0  0  0
 50141  1  0  0  0  0
 51 52  2  0  0  0  0
 51 53  1  0  0  0  0
 53 54  1  0  0  0  0
 53 57  1  0  0  0  0
 54 55  1  0  0  0  0
 54 58  1  0  0  0  0
 54142  1  6  0  0  0
 55 56  1  0  0  0  0
 55143  1  0  0  0  0
 55144  1  0  0  0  0
 56 57  1  0  0  0  0
 56145  1  0  0  0  0
 56146  1  0  0  0  0
 57147  1  0  0  0  0
 57148  1  0  0  0  0
 58 59  2  0  0  0  0
 58 60  1  0  0  0  0
 60 61  1  0  0  0  0
 60149  1  0  0  0  0
 61 62  1  0  0  0  0
 61 69  1  0  0  0  0
 61150  1  1  0  0  0
 62 63  1  0  0  0  0
 62151  1  0  0  0  0
 62152  1  0  0  0  0
 63 64  1  0  0  0  0
 63 68  2  0  0  0  0
 64 65  2  0  0  0  0
 64153  1  0  0  0  0
 65 66  1  0  0  0  0
 65154  1  0  0  0  0
 66 67  2  0  0  0  0
 66155  1  0  0  0  0
 67 68  1  0  0  0  0
 67156  1  0  0  0  0
 68157  1  0  0  0  0
 69 70  2  0  0  0  0
 69 71  1  0  0  0  0
 71 72  1  0  0  0  0
 71158  1  0  0  0  0
 72 73  1  0  0  0  0
 72159  1  0  0  0  0
 72160  1  0  0  0  0
 73 74  1  0  0  0  0
 73161  1  0  0  0  0
 73162  1  0  0  0  0
 74 75  1  0  0  0  0
 74163  1  0  0  0  0
 74164  1  0  0  0  0
 75 76  1  0  0  0  0
 75165  1  0  0  0  0
 75166  1  0  0  0  0
 76 77  1  0  0  0  0
 76167  1  0  0  0  0
 76168  1  0  0  0  0
 77 78  1  0  0  0  0
 77169  1  0  0  0  0
 77170  1  0  0  0  0
 78171  1  0  0  0  0
 78172  1  0  0  0  0
 79 80  2  0  0  0  0
 79 81  1  0  0  0  0
 81 82  1  0  0  0  0
 81 86  2  0  0  0  0
 82 83  1  0  0  0  0
 82 92  2  0  0  0  0
 83 84  1  0  0  0  0
 83 89  2  0  0  0  0
 84 85  2  0  0  0  0
 85 86  1  0  0  0  0
 85 87  1  0  0  0  0
 86173  1  0  0  0  0
 87 88  1  0  0  0  0
 87174  1  0  0  0  0
 87175  1  0  0  0  0
 88176  1  0  0  0  0
 88177  1  0  0  0  0
 88178  1  0  0  0  0
 89 90  1  0  0  0  0
 89179  1  0  0  0  0
 90 91  2  0  0  0  0
 90180  1  0  0  0  0
 91 92  1  0  0  0  0
 91181  1  0  0  0  0
 92182  1  0  0  0  0
M  END
$$$$
Target_lig_565
 OpenBabel04172516563D

164171  0  0  1  0  0  0  0  0999 V2000
    0.4784   -2.8560    0.6043 N   0  0  0  0  0  0  0  0  0  0  0  0
    0.2610   -1.6045    1.3352 C   0  0  1  0  0  0  0  0  0  0  0  0
    1.1698   -0.4044    0.8089 C   0  0  0  0  0  0  0  0  0  0  0  0
    0.6965    0.5550    0.1974 O   0  0  0  0  0  0  0  0  0  0  0  0
    2.5429   -0.4718    1.0686 N   0  0  0  0  0  0  0  0  0  0  0  0
    3.4107    0.7305    1.1827 C   0  0  1  0  0  0  0  0  0  0  0  0
    4.7662    0.0721    1.5544 C   0  0  0  0  0  0  0  0  0  0  0  0
    4.4637   -1.2236    2.2781 C   0  0  0  0  0  0  0  0  0  0  0  0
    3.0079   -1.4811    2.0100 C   0  0  0  0  0  0  0  0  0  0  0  0
    3.8439    1.9320    0.2279 C   0  0  0  0  0  0  0  0  0  0  0  0
    4.5735    2.8055    0.7009 O   0  0  0  0  0  0  0  0  0  0  0  0
    3.5104    1.9683   -1.1094 N   0  0  0  0  0  0  0  0  0  0  0  0
    3.9161    3.1456   -1.9634 C   0  0  1  0  0  0  0  0  0  0  0  0
    5.4507    3.4062   -2.1216 C   0  0  0  0  0  0  0  0  0  0  0  0
    6.3642    2.5301   -2.9600 C   0  0  0  0  0  0  0  0  0  0  0  0
    5.9669    1.3496   -3.5896 C   0  0  0  0  0  0  0  0  0  0  0  0
    6.8446    0.6734   -4.4495 C   0  0  0  0  0  0  0  0  0  0  0  0
    8.1356    1.1519   -4.6745 C   0  0  0  0  0  0  0  0  0  0  0  0
    8.5679    2.2942   -4.0131 C   0  0  0  0  0  0  0  0  0  0  0  0
    7.6918    2.9718   -3.1602 C   0  0  0  0  0  0  0  0  0  0  0  0
    3.1861    3.1649   -3.3449 C   0  0  0  0  0  0  0  0  0  0  0  0
    2.4531    2.2323   -3.6913 O   0  0  0  0  0  0  0  0  0  0  0  0
    3.3641    4.2947   -4.1336 N   0  0  0  0  0  0  0  0  0  0  0  0
    2.6675    4.4947   -5.4021 C   0  0  0  0  0  0  0  0  0  0  0  0
    3.5888    4.5451   -6.6263 C   0  0  0  0  0  0  0  0  0  0  0  0
    4.3709    3.2492   -6.8188 C   0  0  0  0  0  0  0  0  0  0  0  0
    5.1846    3.3050   -8.0317 N   0  0  0  0  0  0  0  0  0  0  0  0
   -1.2246   -1.1932    1.3497 C   0  0  0  0  0  0  0  0  0  0  0  0
   -2.3117   -2.3682    2.2608 S   0  0  0  0  0  0  0  0  0  0  0  0
   -4.0237   -1.2339    2.5638 S   0  0  0  0  0  0  0  0  0  0  0  0
   -4.7459   -1.2037    0.8863 C   0  0  0  0  0  0  0  0  0  0  0  0
   -6.1694   -0.5929    0.7675 C   0  0  1  0  0  0  0  0  0  0  0  0
   -6.4205    0.8275    1.2673 N   0  0  0  0  0  0  0  0  0  0  0  0
   -5.5453    1.9130    1.3138 C   0  0  0  0  0  0  0  0  0  0  0  0
   -4.4271    1.8330    0.8146 O   0  0  0  0  0  0  0  0  0  0  0  0
   -5.9389    3.2132    2.0481 C   0  0  0  0  0  0  0  0  0  0  0  0
   -5.2955    4.4405    1.7826 C   0  0  0  0  0  0  0  0  0  0  0  0
   -5.3287    5.5101    2.6422 N   0  0  0  0  0  0  0  0  0  0  0  0
   -6.0689    5.4661    3.7523 C   0  0  0  0  0  0  0  0  0  0  0  0
   -6.9246    4.3848    4.0098 C   0  0  0  0  0  0  0  0  0  0  0  0
   -7.7834    4.4821    5.1360 C   0  0  0  0  0  0  0  0  0  0  0  0
   -7.7170    5.5719    6.0200 C   0  0  0  0  0  0  0  0  0  0  0  0
   -6.7789    6.5713    5.8082 C   0  0  0  0  0  0  0  0  0  0  0  0
   -5.9766    6.5139    4.6701 C   0  0  0  0  0  0  0  0  0  0  0  0
   -6.8267    3.2413    3.1452 C   0  0  0  0  0  0  0  0  0  0  0  0
   -4.5742    4.7904    0.5026 C   0  0  0  0  0  0  0  0  0  0  0  0
   -5.2904    5.9095   -0.2664 C   0  0  0  0  0  0  0  0  0  0  0  0
   -6.7142   -1.1187   -0.6338 C   0  0  0  0  0  0  0  0  0  0  0  0
   -7.2815   -2.2176   -0.6788 O   0  0  0  0  0  0  0  0  0  0  0  0
   -6.3521   -0.5029   -1.8142 N   0  0  0  0  0  0  0  0  0  0  0  0
   -6.9030   -0.8951   -3.1305 C   0  0  1  0  0  0  0  0  0  0  0  0
   -6.0105   -0.0701   -4.0689 C   0  0  0  0  0  0  0  0  0  0  0  0
   -5.8699    1.2595   -3.3326 C   0  0  0  0  0  0  0  0  0  0  0  0
   -5.9698    0.8926   -1.8582 C   0  0  0  0  0  0  0  0  0  0  0  0
   -7.0511   -2.3664   -3.6355 C   0  0  0  0  0  0  0  0  0  0  0  0
   -8.1427   -2.7200   -4.1005 O   0  0  0  0  0  0  0  0  0  0  0  0
   -5.9553   -3.1990   -3.6851 N   0  0  0  0  0  0  0  0  0  0  0  0
   -6.1205   -4.6485   -3.9991 C   0  0  1  0  0  0  0  0  0  0  0  0
   -6.6017   -4.9933   -5.4323 C   0  0  0  0  0  0  0  0  0  0  0  0
   -5.8671   -4.6330   -6.7078 C   0  0  0  0  0  0  0  0  0  0  0  0
   -4.6451   -3.9632   -6.7916 C   0  0  0  0  0  0  0  0  0  0  0  0
   -4.0347   -3.7603   -8.0411 C   0  0  0  0  0  0  0  0  0  0  0  0
   -4.6381   -4.2152   -9.2149 C   0  0  0  0  0  0  0  0  0  0  0  0
   -5.8671   -4.8576   -9.1504 C   0  0  0  0  0  0  0  0  0  0  0  0
   -6.4710   -5.0620   -7.9099 C   0  0  0  0  0  0  0  0  0  0  0  0
   -4.8455   -5.4565   -3.6520 C   0  0  0  0  0  0  0  0  0  0  0  0
   -3.8401   -4.8065   -3.3319 O   0  0  0  0  0  0  0  0  0  0  0  0
   -5.0652   -6.8739   -3.7329 N   0  0  0  0  0  0  0  0  0  0  0  0
   -4.3265   -8.0797   -3.2211 C   0  0  0  0  0  0  0  0  0  0  0  0
   -2.8973   -8.3098   -3.7071 C   0  0  0  0  0  0  0  0  0  0  0  0
   -2.1500   -7.0660   -3.4418 C   0  0  0  0  0  0  0  0  0  0  0  0
   -2.6593   -6.6183   -2.1379 N   0  0  0  0  0  0  0  0  0  0  0  0
    0.9073   -4.0177    1.2280 C   0  0  0  0  0  0  0  0  0  0  0  0
    1.2445   -4.0870    2.4071 O   0  0  0  0  0  0  0  0  0  0  0  0
    0.8263   -5.2630    0.4453 C   0  0  0  0  0  0  0  0  0  0  0  0
    1.0642   -5.1132   -0.9389 C   0  0  0  0  0  0  0  0  0  0  0  0
    0.1239   -5.7869   -1.6624 C   0  0  0  0  0  0  0  0  0  0  0  0
   -0.5304   -6.8901   -1.0989 N   0  0  0  0  0  0  0  0  0  0  0  0
   -0.6446   -7.1314    0.2318 C   0  0  0  0  0  0  0  0  0  0  0  0
    0.0179   -6.2639    1.0554 C   0  0  0  0  0  0  0  0  0  0  0  0
   -1.7487   -8.0919    0.7182 C   0  0  0  0  0  0  0  0  0  0  0  0
   -3.0450   -7.4052    1.1924 C   0  0  0  0  0  0  0  0  0  0  0  0
   -0.2274   -5.0477   -2.8390 C   0  0  0  0  0  0  0  0  0  0  0  0
    0.4872   -4.0517   -3.4817 C   0  0  0  0  0  0  0  0  0  0  0  0
    1.6752   -3.6897   -2.8971 C   0  0  0  0  0  0  0  0  0  0  0  0
    1.9235   -4.1820   -1.6221 C   0  0  0  0  0  0  0  0  0  0  0  0
    0.1378   -2.8953   -0.3506 H   0  0  0  0  0  0  0  0  0  0  0  0
    0.5264   -1.7815    2.3792 H   0  0  0  0  0  0  0  0  0  0  0  0
    3.0124    1.2504    2.0689 H   0  0  0  0  0  0  0  0  0  0  0  0
    5.4005    0.7226    2.1645 H   0  0  0  0  0  0  0  0  0  0  0  0
    5.3230   -0.1656    0.6391 H   0  0  0  0  0  0  0  0  0  0  0  0
    4.6510   -1.1570    3.3552 H   0  0  0  0  0  0  0  0  0  0  0  0
    5.0742   -2.0482    1.8942 H   0  0  0  0  0  0  0  0  0  0  0  0
    2.4496   -1.3847    2.9498 H   0  0  0  0  0  0  0  0  0  0  0  0
    2.8683   -2.4733    1.5924 H   0  0  0  0  0  0  0  0  0  0  0  0
    2.5949    1.5759   -1.3266 H   0  0  0  0  0  0  0  0  0  0  0  0
    3.5186    4.0221   -1.4275 H   0  0  0  0  0  0  0  0  0  0  0  0
    5.9153    3.5109   -1.1355 H   0  0  0  0  0  0  0  0  0  0  0  0
    5.5440    4.4021   -2.5815 H   0  0  0  0  0  0  0  0  0  0  0  0
    4.9693    0.9441   -3.4461 H   0  0  0  0  0  0  0  0  0  0  0  0
    6.5133   -0.2269   -4.9599 H   0  0  0  0  0  0  0  0  0  0  0  0
    8.8020    0.6356   -5.3609 H   0  0  0  0  0  0  0  0  0  0  0  0
    9.5779    2.6661   -4.1715 H   0  0  0  0  0  0  0  0  0  0  0  0
    8.0503    3.8710   -2.6611 H   0  0  0  0  0  0  0  0  0  0  0  0
    3.9407    5.0597   -3.8056 H   0  0  0  0  0  0  0  0  0  0  0  0
    2.1441    5.4551   -5.3220 H   0  0  0  0  0  0  0  0  0  0  0  0
    1.9063    3.7208   -5.5421 H   0  0  0  0  0  0  0  0  0  0  0  0
    4.2814    5.3923   -6.5409 H   0  0  0  0  0  0  0  0  0  0  0  0
    2.9711    4.7344   -7.5157 H   0  0  0  0  0  0  0  0  0  0  0  0
    3.6865    2.3968   -6.8817 H   0  0  0  0  0  0  0  0  0  0  0  0
    5.0358    3.0884   -5.9663 H   0  0  0  0  0  0  0  0  0  0  0  0
    4.5835    3.3503   -8.8530 H   0  0  0  0  0  0  0  0  0  0  0  0
    5.7075    2.4324   -8.1121 H   0  0  0  0  0  0  0  0  0  0  0  0
   -1.6126   -1.1210    0.3292 H   0  0  0  0  0  0  0  0  0  0  0  0
   -1.3130   -0.2202    1.8393 H   0  0  0  0  0  0  0  0  0  0  0  0
   -4.7952   -2.2554    0.5656 H   0  0  0  0  0  0  0  0  0  0  0  0
   -4.0488   -0.7021    0.2106 H   0  0  0  0  0  0  0  0  0  0  0  0
   -6.7959   -1.1628    1.4717 H   0  0  0  0  0  0  0  0  0  0  0  0
   -7.3249    0.9469    1.6995 H   0  0  0  0  0  0  0  0  0  0  0  0
   -8.5146    3.7033    5.3375 H   0  0  0  0  0  0  0  0  0  0  0  0
   -8.3785    5.6322    6.8820 H   0  0  0  0  0  0  0  0  0  0  0  0
   -6.6753    7.3982    6.5095 H   0  0  0  0  0  0  0  0  0  0  0  0
   -5.2429    7.3004    4.5008 H   0  0  0  0  0  0  0  0  0  0  0  0
   -7.4189    2.3671    3.3973 H   0  0  0  0  0  0  0  0  0  0  0  0
   -4.4634    3.9377   -0.1648 H   0  0  0  0  0  0  0  0  0  0  0  0
   -3.5668    5.1418    0.7593 H   0  0  0  0  0  0  0  0  0  0  0  0
   -6.3634    5.7142   -0.3719 H   0  0  0  0  0  0  0  0  0  0  0  0
   -4.8630    6.0116   -1.2698 H   0  0  0  0  0  0  0  0  0  0  0  0
   -5.1787    6.8809    0.2318 H   0  0  0  0  0  0  0  0  0  0  0  0
   -7.9223   -0.4812   -3.1592 H   0  0  0  0  0  0  0  0  0  0  0  0
   -6.4237    0.0560   -5.0742 H   0  0  0  0  0  0  0  0  0  0  0  0
   -5.0189   -0.5307   -4.1714 H   0  0  0  0  0  0  0  0  0  0  0  0
   -6.6847    1.9398   -3.6083 H   0  0  0  0  0  0  0  0  0  0  0  0
   -4.9276    1.7697   -3.5537 H   0  0  0  0  0  0  0  0  0  0  0  0
   -6.7540    1.4865   -1.3733 H   0  0  0  0  0  0  0  0  0  0  0  0
   -5.0225    1.0223   -1.3424 H   0  0  0  0  0  0  0  0  0  0  0  0
   -5.1251   -2.9546   -3.1415 H   0  0  0  0  0  0  0  0  0  0  0  0
   -6.8937   -5.0003   -3.2995 H   0  0  0  0  0  0  0  0  0  0  0  0
   -7.6263   -4.6278   -5.5399 H   0  0  0  0  0  0  0  0  0  0  0  0
   -6.6865   -6.0889   -5.4831 H   0  0  0  0  0  0  0  0  0  0  0  0
   -4.1406   -3.5943   -5.9030 H   0  0  0  0  0  0  0  0  0  0  0  0
   -3.0763   -3.2495   -8.1019 H   0  0  0  0  0  0  0  0  0  0  0  0
   -4.1526   -4.0702  -10.1768 H   0  0  0  0  0  0  0  0  0  0  0  0
   -6.3550   -5.2073  -10.0564 H   0  0  0  0  0  0  0  0  0  0  0  0
   -7.4305   -5.5763   -7.8784 H   0  0  0  0  0  0  0  0  0  0  0  0
   -6.0211   -7.1357   -3.9065 H   0  0  0  0  0  0  0  0  0  0  0  0
   -4.8954   -8.9694   -3.4915 H   0  0  0  0  0  0  0  0  0  0  0  0
   -4.3652   -8.0581   -2.1194 H   0  0  0  0  0  0  0  0  0  0  0  0
   -2.8263   -8.5427   -4.7717 H   0  0  0  0  0  0  0  0  0  0  0  0
   -2.4012   -9.1245   -3.1555 H   0  0  0  0  0  0  0  0  0  0  0  0
   -2.3443   -6.3509   -4.2481 H   0  0  0  0  0  0  0  0  0  0  0  0
   -1.0762   -7.2858   -3.4655 H   0  0  0  0  0  0  0  0  0  0  0  0
   -2.1037   -7.0950   -1.4395 H   0  0  0  0  0  0  0  0  0  0  0  0
   -2.5149   -5.6250   -1.9633 H   0  0  0  0  0  0  0  0  0  0  0  0
   -0.1978   -6.2647    2.1181 H   0  0  0  0  0  0  0  0  0  0  0  0
   -1.3801   -8.7300    1.5302 H   0  0  0  0  0  0  0  0  0  0  0  0
   -2.0302   -8.7842   -0.0911 H   0  0  0  0  0  0  0  0  0  0  0  0
   -2.8772   -6.8162    2.0989 H   0  0  0  0  0  0  0  0  0  0  0  0
   -3.8240   -8.1452    1.4269 H   0  0  0  0  0  0  0  0  0  0  0  0
   -3.4674   -6.7360    0.4365 H   0  0  0  0  0  0  0  0  0  0  0  0
   -1.2227   -5.0943   -3.2589 H   0  0  0  0  0  0  0  0  0  0  0  0
    0.0740   -3.5802   -4.3717 H   0  0  0  0  0  0  0  0  0  0  0  0
    2.2817   -2.9422   -3.3879 H   0  0  0  0  0  0  0  0  0  0  0  0
    2.7584   -3.7492   -1.0774 H   0  0  0  0  0  0  0  0  0  0  0  0
  1  2  1  0  0  0  0
  1 73  1  0  0  0  0
  1 87  1  0  0  0  0
  2  3  1  0  0  0  0
  2 28  1  0  0  0  0
  2 88  1  1  0  0  0
  3  4  2  0  0  0  0
  3  5  1  0  0  0  0
  5  6  1  0  0  0  0
  5  9  1  0  0  0  0
  6  7  1  0  0  0  0
  6 10  1  0  0  0  0
  6 89  1  1  0  0  0
  7  8  1  0  0  0  0
  7 90  1  0  0  0  0
  7 91  1  0  0  0  0
  8  9  1  0  0  0  0
  8 92  1  0  0  0  0
  8 93  1  0  0  0  0
  9 94  1  0  0  0  0
  9 95  1  0  0  0  0
 10 11  2  0  0  0  0
 10 12  1  0  0  0  0
 12 13  1  0  0  0  0
 12 96  1  0  0  0  0
 13 14  1  0  0  0  0
 13 21  1  0  0  0  0
 13 97  1  1  0  0  0
 14 15  1  0  0  0  0
 14 98  1  0  0  0  0
 14 99  1  0  0  0  0
 15 16  1  0  0  0  0
 15 20  2  0  0  0  0
 16 17  2  0  0  0  0
 16100  1  0  0  0  0
 17 18  1  0  0  0  0
 17101  1  0  0  0  0
 18 19  2  0  0  0  0
 18102  1  0  0  0  0
 19 20  1  0  0  0  0
 19103  1  0  0  0  0
 20104  1  0  0  0  0
 21 22  2  0  0  0  0
 21 23  1  0  0  0  0
 23 24  1  0  0  0  0
 23105  1  0  0  0  0
 24 25  1  0  0  0  0
 24106  1  0  0  0  0
 24107  1  0  0  0  0
 25 26  1  0  0  0  0
 25108  1  0  0  0  0
 25109  1  0  0  0  0
 26 27  1  0  0  0  0
 26110  1  0  0  0  0
 26111  1  0  0  0  0
 27112  1  0  0  0  0
 27113  1  0  0  0  0
 28 29  1  0  0  0  0
 28114  1  0  0  0  0
 28115  1  0  0  0  0
 29 30  1  0  0  0  0
 30 31  1  0  0  0  0
 31 32  1  0  0  0  0
 31116  1  0  0  0  0
 31117  1  0  0  0  0
 32 33  1  0  0  0  0
 32 48  1  0  0  0  0
 32118  1  1  0  0  0
 33 34  1  0  0  0  0
 33119  1  0  0  0  0
 34 35  2  0  0  0  0
 34 36  1  0  0  0  0
 36 37  1  0  0  0  0
 36 45  2  0  0  0  0
 37 38  2  0  0  0  0
 37 46  1  0  0  0  0
 38 39  1  0  0  0  0
 39 40  1  0  0  0  0
 39 44  2  0  0  0  0
 40 41  2  0  0  0  0
 40 45  1  0  0  0  0
 41 42  1  0  0  0  0
 41120  1  0  0  0  0
 42 43  2  0  0  0  0
 42121  1  0  0  0  0
 43 44  1  0  0  0  0
 43122  1  0  0  0  0
 44123  1  0  0  0  0
 45124  1  0  0  0  0
 46 47  1  0  0  0  0
 46125  1  0  0  0  0
 46126  1  0  0  0  0
 47127  1  0  0  0  0
 47128  1  0  0  0  0
 47129  1  0  0  0  0
 48 49  2  0  0  0  0
 48 50  1  0  0  0  0
 50 51  1  0  0  0  0
 50 54  1  0  0  0  0
 51 52  1  0  0  0  0
 51 55  1  0  0  0  0
 51130  1  6  0  0  0
 52 53  1  0  0  0  0
 52131  1  0  0  0  0
 52132  1  0  0  0  0
 53 54  1  0  0  0  0
 53133  1  0  0  0  0
 53134  1  0  0  0  0
 54135  1  0  0  0  0
 54136  1  0  0  0  0
 55 56  2  0  0  0  0
 55 57  1  0  0  0  0
 57 58  1  0  0  0  0
 57137  1  0  0  0  0
 58 59  1  0  0  0  0
 58 66  1  0  0  0  0
 58138  1  1  0  0  0
 59 60  1  0  0  0  0
 59139  1  0  0  0  0
 59140  1  0  0  0  0
 60 61  1  0  0  0  0
 60 65  2  0  0  0  0
 61 62  2  0  0  0  0
 61141  1  0  0  0  0
 62 63  1  0  0  0  0
 62142  1  0  0  0  0
 63 64  2  0  0  0  0
 63143  1  0  0  0  0
 64 65  1  0  0  0  0
 64144  1  0  0  0  0
 65145  1  0  0  0  0
 66 67  2  0  0  0  0
 66 68  1  0  0  0  0
 68 69  1  0  0  0  0
 68146  1  0  0  0  0
 69 70  1  0  0  0  0
 69147  1  0  0  0  0
 69148  1  0  0  0  0
 70 71  1  0  0  0  0
 70149  1  0  0  0  0
 70150  1  0  0  0  0
 71 72  1  0  0  0  0
 71151  1  0  0  0  0
 71152  1  0  0  0  0
 72153  1  0  0  0  0
 72154  1  0  0  0  0
 73 74  2  0  0  0  0
 73 75  1  0  0  0  0
 75 76  1  0  0  0  0
 75 80  2  0  0  0  0
 76 77  1  0  0  0  0
 76 86  2  0  0  0  0
 77 78  1  0  0  0  0
 77 83  2  0  0  0  0
 78 79  2  0  0  0  0
 79 80  1  0  0  0  0
 79 81  1  0  0  0  0
 80155  1  0  0  0  0
 81 82  1  0  0  0  0
 81156  1  0  0  0  0
 81157  1  0  0  0  0
 82158  1  0  0  0  0
 82159  1  0  0  0  0
 82160  1  0  0  0  0
 83 84  1  0  0  0  0
 83161  1  0  0  0  0
 84 85  2  0  0  0  0
 84162  1  0  0  0  0
 85 86  1  0  0  0  0
 85163  1  0  0  0  0
 86164  1  0  0  0  0
M  END
$$$$
Target_lig_566
 OpenBabel04172516563D

158165  0  0  1  0  0  0  0  0999 V2000
    1.5506    6.0269   -2.3111 N   0  0  0  0  0  0  0  0  0  0  0  0
    0.8812    5.6729   -1.0173 C   0  0  2  0  0  0  0  0  0  0  0  0
    1.9975    5.1090   -0.0569 C   0  0  0  0  0  0  0  0  0  0  0  0
    3.0400    5.8099   -0.0926 O   0  0  0  0  0  0  0  0  0  0  0  0
    2.0153    4.0525    0.8482 N   0  0  0  0  0  0  0  0  0  0  0  0
    1.0456    3.0093    1.3493 C   0  0  2  0  0  0  0  0  0  0  0  0
    1.2465    3.1539    2.8806 C   0  0  0  0  0  0  0  0  0  0  0  0
    2.7469    3.3385    3.0413 C   0  0  0  0  0  0  0  0  0  0  0  0
    3.1343    4.1309    1.8089 C   0  0  0  0  0  0  0  0  0  0  0  0
    1.2306    1.4034    1.0075 C   0  0  0  0  0  0  0  0  0  0  0  0
    1.2229    0.5768    1.8801 O   0  0  0  0  0  0  0  0  0  0  0  0
    1.1491    1.0229   -0.2955 N   0  0  0  0  0  0  0  0  0  0  0  0
    1.2738   -0.4333   -0.7620 C   0  0  2  0  0  0  0  0  0  0  0  0
    1.9173   -0.6186   -2.1830 C   0  0  0  0  0  0  0  0  0  0  0  0
    3.2554    0.0782   -2.1537 C   0  0  0  0  0  0  0  0  0  0  0  0
    4.2571   -0.4637   -1.3431 C   0  0  0  0  0  0  0  0  0  0  0  0
    4.9913    0.3990   -0.5442 C   0  0  0  0  0  0  0  0  0  0  0  0
    4.7622    1.7714   -0.6185 C   0  0  0  0  0  0  0  0  0  0  0  0
    3.9135    2.2954   -1.5913 C   0  0  0  0  0  0  0  0  0  0  0  0
    3.2265    1.4423   -2.4341 C   0  0  0  0  0  0  0  0  0  0  0  0
   -0.0805   -1.1438   -0.7995 C   0  0  0  0  0  0  0  0  0  0  0  0
   -0.3396   -2.0717   -1.5609 O   0  0  0  0  0  0  0  0  0  0  0  0
   -0.9340   -0.7273    0.1859 N   0  0  0  0  0  0  0  0  0  0  0  0
   -2.2897   -1.1875    0.3021 C   0  0  0  0  0  0  0  0  0  0  0  0
   -3.2685   -0.0660   -0.0282 C   0  0  0  0  0  0  0  0  0  0  0  0
   -3.1092    0.4341   -1.4642 C   0  0  0  0  0  0  0  0  0  0  0  0
   -4.0977    1.4674   -1.7551 N   0  0  0  0  0  0  0  0  0  0  0  0
   -0.5200    5.1363   -1.2808 C   0  0  0  0  0  0  0  0  0  0  0  0
   -1.8516    5.6552   -0.0698 S   0  0  0  0  0  0  0  0  0  0  0  0
   -1.5589    7.6685    0.4990 S   0  0  0  0  0  0  0  0  0  0  0  0
   -2.5998    8.7321   -0.6114 C   0  0  0  0  0  0  0  0  0  0  0  0
   -2.7996   10.3172   -0.2600 C   0  0  1  0  0  0  0  0  0  0  0  0
   -1.4666   11.2002   -0.0896 N   0  0  0  0  0  0  0  0  0  0  0  0
   -0.9683   12.0519    1.0197 C   0  0  0  0  0  0  0  0  0  0  0  0
   -1.5216   12.0429    2.1000 O   0  0  0  0  0  0  0  0  0  0  0  0
    0.3497   13.0429    0.7843 C   0  0  0  0  0  0  0  0  0  0  0  0
    1.0916   13.9718    1.6070 C   0  0  0  0  0  0  0  0  0  0  0  0
    2.0950   14.7918    1.0962 N   0  0  0  0  0  0  0  0  0  0  0  0
    2.3881   14.8425   -0.2011 C   0  0  0  0  0  0  0  0  0  0  0  0
    1.7687   13.9649   -1.0759 C   0  0  0  0  0  0  0  0  0  0  0  0
    2.0694   14.0511   -2.4338 C   0  0  0  0  0  0  0  0  0  0  0  0
    2.9257   15.0511   -2.9193 C   0  0  0  0  0  0  0  0  0  0  0  0
    3.5290   15.9236   -2.0284 C   0  0  0  0  0  0  0  0  0  0  0  0
    3.2785   15.8026   -0.6643 C   0  0  0  0  0  0  0  0  0  0  0  0
    0.8069   13.0542   -0.5568 C   0  0  0  0  0  0  0  0  0  0  0  0
    1.1008   14.3623    3.0440 C   0  0  0  0  0  0  0  0  0  0  0  0
   -3.7250   10.8056   -1.5308 C   0  0  0  0  0  0  0  0  0  0  0  0
   -3.3847   10.5001   -2.6845 O   0  0  0  0  0  0  0  0  0  0  0  0
   -4.8413   11.6337   -1.3600 N   0  0  0  0  0  0  0  0  0  0  0  0
   -5.7898   11.9882   -2.4589 C   0  0  1  0  0  0  0  0  0  0  0  0
   -6.7324   13.0026   -1.7818 C   0  0  0  0  0  0  0  0  0  0  0  0
   -6.7917   12.5627   -0.3302 C   0  0  0  0  0  0  0  0  0  0  0  0
   -5.5385   11.7199   -0.0904 C   0  0  0  0  0  0  0  0  0  0  0  0
   -5.2377   12.6689   -3.7252 C   0  0  0  0  0  0  0  0  0  0  0  0
   -5.6513   12.3834   -4.8478 O   0  0  0  0  0  0  0  0  0  0  0  0
   -4.4152   13.7475   -3.4903 N   0  0  0  0  0  0  0  0  0  0  0  0
   -3.5895   14.3668   -4.5379 C   0  0  1  0  0  0  0  0  0  0  0  0
   -2.2730   13.5880   -4.6655 C   0  0  0  0  0  0  0  0  0  0  0  0
   -1.2747   14.0834   -5.6738 C   0  0  0  0  0  0  0  0  0  0  0  0
   -0.5634   15.2808   -5.5138 C   0  0  0  0  0  0  0  0  0  0  0  0
    0.3473   15.6924   -6.4945 C   0  0  0  0  0  0  0  0  0  0  0  0
    0.5629   14.9033   -7.6227 C   0  0  0  0  0  0  0  0  0  0  0  0
   -0.1195   13.7000   -7.7721 C   0  0  0  0  0  0  0  0  0  0  0  0
   -1.0313   13.2926   -6.8016 C   0  0  0  0  0  0  0  0  0  0  0  0
   -4.4176   14.8447   -5.7886 C   0  0  0  0  0  0  0  0  0  0  0  0
   -4.9156   15.9773   -5.7759 O   0  0  0  0  0  0  0  0  0  0  0  0
   -4.7154   13.9491   -6.8126 N   0  0  0  0  0  0  0  0  0  0  0  0
   -5.7471   14.3345   -7.7951 C   0  0  0  0  0  0  0  0  0  0  0  0
   -5.9608   13.3332   -8.9446 C   0  0  0  0  0  0  0  0  0  0  0  0
   -6.9929   13.8274   -9.9818 C   0  0  0  0  0  0  0  0  0  0  0  0
   -7.1768   12.8515  -11.0565 N   0  0  0  0  0  0  0  0  0  0  0  0
    1.8941    5.0856   -3.2539 C   0  0  0  0  0  0  0  0  0  0  0  0
    1.5709    3.9114   -3.0969 O   0  0  0  0  0  0  0  0  0  0  0  0
    2.5228    5.5402   -4.5277 C   0  0  0  0  0  0  0  0  0  0  0  0
    3.3205    6.7013   -4.6930 C   0  0  0  0  0  0  0  0  0  0  0  0
    3.4993    7.1498   -6.0175 C   0  0  0  0  0  0  0  0  0  0  0  0
    3.1528    6.4166   -7.0928 N   0  0  0  0  0  0  0  0  0  0  0  0
    2.5558    5.2194   -6.9040 C   0  0  0  0  0  0  0  0  0  0  0  0
    2.1609    4.7923   -5.6517 C   0  0  0  0  0  0  0  0  0  0  0  0
    2.2533    4.3672   -8.1020 C   0  0  0  0  0  0  0  0  0  0  0  0
    4.0186    8.4235   -6.2184 C   0  0  0  0  0  0  0  0  0  0  0  0
    4.4567    9.2219   -5.1597 C   0  0  0  0  0  0  0  0  0  0  0  0
    4.4780    8.6976   -3.8759 C   0  0  0  0  0  0  0  0  0  0  0  0
    3.9285    7.4382   -3.6436 C   0  0  0  0  0  0  0  0  0  0  0  0
    1.6929    7.0079   -2.5097 H   0  0  0  0  0  0  0  0  0  0  0  0
    0.7300    6.6760   -0.6064 H   0  0  0  0  0  0  0  0  0  0  0  0
    0.0368    3.2810    1.0570 H   0  0  0  0  0  0  0  0  0  0  0  0
    0.8939    2.3116    3.4852 H   0  0  0  0  0  0  0  0  0  0  0  0
    0.7357    4.0532    3.2464 H   0  0  0  0  0  0  0  0  0  0  0  0
    3.2788    2.3806    3.0647 H   0  0  0  0  0  0  0  0  0  0  0  0
    3.0090    3.8730    3.9654 H   0  0  0  0  0  0  0  0  0  0  0  0
    4.0376    3.7303    1.3485 H   0  0  0  0  0  0  0  0  0  0  0  0
    3.3413    5.1702    2.0953 H   0  0  0  0  0  0  0  0  0  0  0  0
    1.1856    1.7261   -1.0323 H   0  0  0  0  0  0  0  0  0  0  0  0
    1.8810   -0.9622   -0.0157 H   0  0  0  0  0  0  0  0  0  0  0  0
    2.0475   -1.6765   -2.4389 H   0  0  0  0  0  0  0  0  0  0  0  0
    1.2651   -0.1865   -2.9529 H   0  0  0  0  0  0  0  0  0  0  0  0
    4.3196   -1.5369   -1.1784 H   0  0  0  0  0  0  0  0  0  0  0  0
    5.6562   -0.0008    0.2151 H   0  0  0  0  0  0  0  0  0  0  0  0
    5.2212    2.4316    0.1072 H   0  0  0  0  0  0  0  0  0  0  0  0
    3.6939    3.3590   -1.6120 H   0  0  0  0  0  0  0  0  0  0  0  0
    2.4680    1.8297   -3.1124 H   0  0  0  0  0  0  0  0  0  0  0  0
   -0.5859   -0.0402    0.8446 H   0  0  0  0  0  0  0  0  0  0  0  0
   -2.4169   -1.5109    1.3397 H   0  0  0  0  0  0  0  0  0  0  0  0
   -2.4574   -2.0506   -0.3498 H   0  0  0  0  0  0  0  0  0  0  0  0
   -3.1147    0.7679    0.6696 H   0  0  0  0  0  0  0  0  0  0  0  0
   -4.2866   -0.4398    0.1303 H   0  0  0  0  0  0  0  0  0  0  0  0
   -3.2203   -0.3932   -2.1730 H   0  0  0  0  0  0  0  0  0  0  0  0
   -2.1125    0.8685   -1.6139 H   0  0  0  0  0  0  0  0  0  0  0  0
   -5.0347    1.0713   -1.6652 H   0  0  0  0  0  0  0  0  0  0  0  0
   -4.0067    1.7478   -2.7310 H   0  0  0  0  0  0  0  0  0  0  0  0
   -0.5168    4.0455   -1.4037 H   0  0  0  0  0  0  0  0  0  0  0  0
   -0.8834    5.5299   -2.2432 H   0  0  0  0  0  0  0  0  0  0  0  0
   -3.6011    8.2675   -0.6260 H   0  0  0  0  0  0  0  0  0  0  0  0
   -2.1969    8.5952   -1.6228 H   0  0  0  0  0  0  0  0  0  0  0  0
   -3.3758   10.3904    0.6648 H   0  0  0  0  0  0  0  0  0  0  0  0
   -1.0061   11.2729   -0.9750 H   0  0  0  0  0  0  0  0  0  0  0  0
    1.5900   13.3813   -3.1518 H   0  0  0  0  0  0  0  0  0  0  0  0
    3.1049   15.1383   -3.9841 H   0  0  0  0  0  0  0  0  0  0  0  0
    4.2065   16.7056   -2.3915 H   0  0  0  0  0  0  0  0  0  0  0  0
    3.7491   16.4872    0.0391 H   0  0  0  0  0  0  0  0  0  0  0  0
    0.4152   12.3572   -1.2886 H   0  0  0  0  0  0  0  0  0  0  0  0
    0.5494   13.8013    3.7901 H   0  0  0  0  0  0  0  0  0  0  0  0
    0.8381   15.4406    3.1286 H   0  0  0  0  0  0  0  0  0  0  0  0
    2.1655   14.3809    3.4036 H   0  0  0  0  0  0  0  0  0  0  0  0
   -6.3489   11.0897   -2.7606 H   0  0  0  0  0  0  0  0  0  0  0  0
   -7.7204   13.0569   -2.2519 H   0  0  0  0  0  0  0  0  0  0  0  0
   -6.3260   14.0214   -1.8168 H   0  0  0  0  0  0  0  0  0  0  0  0
   -7.7038   11.9848   -0.1453 H   0  0  0  0  0  0  0  0  0  0  0  0
   -6.8132   13.4279    0.3408 H   0  0  0  0  0  0  0  0  0  0  0  0
   -5.8298   10.7072    0.2177 H   0  0  0  0  0  0  0  0  0  0  0  0
   -4.8728   12.1520    0.6474 H   0  0  0  0  0  0  0  0  0  0  0  0
   -4.1153   13.8802   -2.5321 H   0  0  0  0  0  0  0  0  0  0  0  0
   -3.2942   15.3227   -4.0778 H   0  0  0  0  0  0  0  0  0  0  0  0
   -2.4665   12.5192   -4.8178 H   0  0  0  0  0  0  0  0  0  0  0  0
   -1.7634   13.6188   -3.6839 H   0  0  0  0  0  0  0  0  0  0  0  0
   -0.7013   15.9078   -4.6339 H   0  0  0  0  0  0  0  0  0  0  0  0
    0.8839   16.6316   -6.3835 H   0  0  0  0  0  0  0  0  0  0  0  0
    1.2615   15.2257   -8.3908 H   0  0  0  0  0  0  0  0  0  0  0  0
    0.0464   13.0767   -8.6457 H   0  0  0  0  0  0  0  0  0  0  0  0
   -1.5571   12.3491   -6.9304 H   0  0  0  0  0  0  0  0  0  0  0  0
   -4.7772   12.9882   -6.4805 H   0  0  0  0  0  0  0  0  0  0  0  0
   -5.4783   15.3165   -8.2028 H   0  0  0  0  0  0  0  0  0  0  0  0
   -6.6862   14.4581   -7.2416 H   0  0  0  0  0  0  0  0  0  0  0  0
   -6.3010   12.3753   -8.5325 H   0  0  0  0  0  0  0  0  0  0  0  0
   -5.0069   13.1441   -9.4497 H   0  0  0  0  0  0  0  0  0  0  0  0
   -6.6699   14.7772  -10.4221 H   0  0  0  0  0  0  0  0  0  0  0  0
   -7.9647   13.9978   -9.5059 H   0  0  0  0  0  0  0  0  0  0  0  0
   -6.2861   12.6484  -11.5073 H   0  0  0  0  0  0  0  0  0  0  0  0
   -7.7717   13.2532  -11.7881 H   0  0  0  0  0  0  0  0  0  0  0  0
    1.5618    3.8919   -5.5522 H   0  0  0  0  0  0  0  0  0  0  0  0
    2.8331    4.6831   -8.9739 H   0  0  0  0  0  0  0  0  0  0  0  0
    1.1878    4.4217   -8.3424 H   0  0  0  0  0  0  0  0  0  0  0  0
    2.5138    3.3238   -7.8905 H   0  0  0  0  0  0  0  0  0  0  0  0
    4.0633    8.8185   -7.2336 H   0  0  0  0  0  0  0  0  0  0  0  0
    4.8063   10.2346   -5.3467 H   0  0  0  0  0  0  0  0  0  0  0  0
    4.9013    9.2709   -3.0546 H   0  0  0  0  0  0  0  0  0  0  0  0
    3.9845    7.0262   -2.6361 H   0  0  0  0  0  0  0  0  0  0  0  0
  1 72  1  0  0  0  0
  1 85  1  0  0  0  0
  2 28  1  0  0  0  0
  2  3  1  0  0  0  0
  2  1  1  0  0  0  0
  2 86  1  1  0  0  0
  3  4  2  0  0  0  0
  3  5  1  0  0  0  0
  5  6  1  0  0  0  0
  5  9  1  0  0  0  0
  6  7  1  0  0  0  0
  6 10  1  0  0  0  0
  6 87  1  6  0  0  0
  7  8  1  0  0  0  0
  7 88  1  0  0  0  0
  7 89  1  0  0  0  0
  8  9  1  0  0  0  0
  8 90  1  0  0  0  0
  8 91  1  0  0  0  0
  9 92  1  0  0  0  0
  9 93  1  0  0  0  0
 10 11  2  0  0  0  0
 10 12  1  0  0  0  0
 12 94  1  0  0  0  0
 13 21  1  0  0  0  0
 13 14  1  0  0  0  0
 13 12  1  0  0  0  0
 13 95  1  1  0  0  0
 14 15  1  0  0  0  0
 14 96  1  0  0  0  0
 14 97  1  0  0  0  0
 15 16  1  0  0  0  0
 15 20  2  0  0  0  0
 16 17  2  0  0  0  0
 16 98  1  0  0  0  0
 17 18  1  0  0  0  0
 17 99  1  0  0  0  0
 18 19  2  0  0  0  0
 18100  1  0  0  0  0
 19 20  1  0  0  0  0
 19101  1  0  0  0  0
 20102  1  0  0  0  0
 21 22  2  0  0  0  0
 21 23  1  0  0  0  0
 23 24  1  0  0  0  0
 23103  1  0  0  0  0
 24 25  1  0  0  0  0
 24104  1  0  0  0  0
 24105  1  0  0  0  0
 25 26  1  0  0  0  0
 25106  1  0  0  0  0
 25107  1  0  0  0  0
 26 27  1  0  0  0  0
 26108  1  0  0  0  0
 26109  1  0  0  0  0
 27110  1  0  0  0  0
 27111  1  0  0  0  0
 28 29  1  0  0  0  0
 28112  1  0  0  0  0
 28113  1  0  0  0  0
 29 30  1  0  0  0  0
 30 31  1  0  0  0  0
 31 32  1  0  0  0  0
 31114  1  0  0  0  0
 31115  1  0  0  0  0
 32 33  1  0  0  0  0
 32 47  1  0  0  0  0
 32116  1  1  0  0  0
 33 34  1  0  0  0  0
 33117  1  0  0  0  0
 34 35  2  0  0  0  0
 34 36  1  0  0  0  0
 36 37  1  0  0  0  0
 36 45  2  0  0  0  0
 37 38  2  0  0  0  0
 37 46  1  0  0  0  0
 38 39  1  0  0  0  0
 39 40  1  0  0  0  0
 39 44  2  0  0  0  0
 40 41  2  0  0  0  0
 40 45  1  0  0  0  0
 41 42  1  0  0  0  0
 41118  1  0  0  0  0
 42 43  2  0  0  0  0
 42119  1  0  0  0  0
 43 44  1  0  0  0  0
 43120  1  0  0  0  0
 44121  1  0  0  0  0
 45122  1  0  0  0  0
 46123  1  0  0  0  0
 46124  1  0  0  0  0
 46125  1  0  0  0  0
 47 48  2  0  0  0  0
 47 49  1  0  0  0  0
 49 50  1  0  0  0  0
 49 53  1  0  0  0  0
 50 51  1  0  0  0  0
 50 54  1  0  0  0  0
 50126  1  6  0  0  0
 51 52  1  0  0  0  0
 51127  1  0  0  0  0
 51128  1  0  0  0  0
 52 53  1  0  0  0  0
 52129  1  0  0  0  0
 52130  1  0  0  0  0
 53131  1  0  0  0  0
 53132  1  0  0  0  0
 54 55  2  0  0  0  0
 54 56  1  0  0  0  0
 56 57  1  0  0  0  0
 56133  1  0  0  0  0
 57 58  1  0  0  0  0
 57 65  1  0  0  0  0
 57134  1  1  0  0  0
 58 59  1  0  0  0  0
 58135  1  0  0  0  0
 58136  1  0  0  0  0
 59 60  1  0  0  0  0
 59 64  2  0  0  0  0
 60 61  2  0  0  0  0
 60137  1  0  0  0  0
 61 62  1  0  0  0  0
 61138  1  0  0  0  0
 62 63  2  0  0  0  0
 62139  1  0  0  0  0
 63 64  1  0  0  0  0
 63140  1  0  0  0  0
 64141  1  0  0  0  0
 65 66  2  0  0  0  0
 65 67  1  0  0  0  0
 67 68  1  0  0  0  0
 67142  1  0  0  0  0
 68 69  1  0  0  0  0
 68143  1  0  0  0  0
 68144  1  0  0  0  0
 69 70  1  0  0  0  0
 69145  1  0  0  0  0
 69146  1  0  0  0  0
 70 71  1  0  0  0  0
 70147  1  0  0  0  0
 70148  1  0  0  0  0
 71149  1  0  0  0  0
 71150  1  0  0  0  0
 72 73  2  0  0  0  0
 72 74  1  0  0  0  0
 74 75  1  0  0  0  0
 74 79  2  0  0  0  0
 75 76  1  0  0  0  0
 75 84  2  0  0  0  0
 76 77  1  0  0  0  0
 76 81  2  0  0  0  0
 77 78  2  0  0  0  0
 78 79  1  0  0  0  0
 78 80  1  0  0  0  0
 79151  1  0  0  0  0
 80152  1  0  0  0  0
 80153  1  0  0  0  0
 80154  1  0  0  0  0
 81 82  1  0  0  0  0
 81155  1  0  0  0  0
 82 83  2  0  0  0  0
 82156  1  0  0  0  0
 83 84  1  0  0  0  0
 83157  1  0  0  0  0
 84158  1  0  0  0  0
M  END
$$$$
Target_lig_567
 OpenBabel04172516563D

152159  0  0  1  0  0  0  0  0999 V2000
    1.4037    3.2674   -1.2034 N   0  0  0  0  0  0  0  0  0  0  0  0
    0.7616    3.1803   -2.6788 C   0  0  1  0  0  0  0  0  0  0  0  0
    1.1319    2.5540   -4.1963 C   0  0  0  0  0  0  0  0  0  0  0  0
    0.3703    1.7193   -4.7150 O   0  0  0  0  0  0  0  0  0  0  0  0
    2.0891    3.0958   -5.0315 N   0  0  0  0  0  0  0  0  0  0  0  0
    2.1970    2.8307   -6.5194 C   0  0  1  0  0  0  0  0  0  0  0  0
    3.7395    2.6726   -6.6800 C   0  0  0  0  0  0  0  0  0  0  0  0
    4.3779    3.4973   -5.5466 C   0  0  0  0  0  0  0  0  0  0  0  0
    3.2547    3.8240   -4.5628 C   0  0  0  0  0  0  0  0  0  0  0  0
    1.3203    1.8395   -7.5207 C   0  0  0  0  0  0  0  0  0  0  0  0
    1.8974    1.1989   -8.4049 O   0  0  0  0  0  0  0  0  0  0  0  0
   -0.0830    1.9300   -7.5309 N   0  0  0  0  0  0  0  0  0  0  0  0
   -1.0426    1.2470   -8.5114 C   0  0  2  0  0  0  0  0  0  0  0  0
   -1.2598    1.9618   -9.9003 C   0  0  0  0  0  0  0  0  0  0  0  0
   -1.9304    3.3249   -9.8006 C   0  0  0  0  0  0  0  0  0  0  0  0
   -1.2480    4.3765   -9.1728 C   0  0  0  0  0  0  0  0  0  0  0  0
   -1.8890    5.5885   -8.9018 C   0  0  0  0  0  0  0  0  0  0  0  0
   -3.1875    5.8089   -9.3087 C   0  0  0  0  0  0  0  0  0  0  0  0
   -3.8656    4.8005  -10.0075 C   0  0  0  0  0  0  0  0  0  0  0  0
   -3.2425    3.5655  -10.2428 C   0  0  0  0  0  0  0  0  0  0  0  0
   -2.5056    1.0093   -7.9924 C   0  0  0  0  0  0  0  0  0  0  0  0
   -3.4680    0.8871   -8.7606 O   0  0  0  0  0  0  0  0  0  0  0  0
   -2.6990    0.7697   -6.6587 N   0  0  0  0  0  0  0  0  0  0  0  0
   -4.0625    0.5359   -6.1773 C   0  0  0  0  0  0  0  0  0  0  0  0
   -4.1351    0.2200   -4.6942 C   0  0  0  0  0  0  0  0  0  0  0  0
   -3.4387    1.2735   -3.8460 C   0  0  0  0  0  0  0  0  0  0  0  0
   -4.0403    2.5956   -3.9955 N   0  0  0  0  0  0  0  0  0  0  0  0
   -0.7881    2.9068   -2.6394 C   0  0  0  0  0  0  0  0  0  0  0  0
   -1.8843    3.7974   -1.4506 S   0  0  0  0  0  0  0  0  0  0  0  0
   -2.2499    5.6281   -2.3403 S   0  0  0  0  0  0  0  0  0  0  0  0
   -3.5953    6.4554   -1.3490 C   0  0  0  0  0  0  0  0  0  0  0  0
   -3.5771    6.5737    0.2115 C   0  0  1  0  0  0  0  0  0  0  0  0
   -2.4125    7.2671    0.9330 N   0  0  0  0  0  0  0  0  0  0  0  0
   -1.0584    6.8957    0.8891 C   0  0  0  0  0  0  0  0  0  0  0  0
   -0.5896    6.1916    0.0073 O   0  0  0  0  0  0  0  0  0  0  0  0
   -0.0759    7.2850    1.9825 C   0  0  0  0  0  0  0  0  0  0  0  0
    1.2191    6.7622    1.9052 C   0  0  0  0  0  0  0  0  0  0  0  0
    2.1577    6.7736    2.8962 N   0  0  0  0  0  0  0  0  0  0  0  0
    1.8227    7.3315    4.0756 C   0  0  0  0  0  0  0  0  0  0  0  0
    0.6189    8.0443    4.2155 C   0  0  0  0  0  0  0  0  0  0  0  0
    0.3850    8.7130    5.4393 C   0  0  0  0  0  0  0  0  0  0  0  0
    1.2647    8.5956    6.5223 C   0  0  0  0  0  0  0  0  0  0  0  0
    2.4026    7.8135    6.3944 C   0  0  0  0  0  0  0  0  0  0  0  0
    2.6767    7.2017    5.1686 C   0  0  0  0  0  0  0  0  0  0  0  0
   -0.3286    8.0230    3.1420 C   0  0  0  0  0  0  0  0  0  0  0  0
   -5.0570    7.1098    0.7155 C   0  0  0  0  0  0  0  0  0  0  0  0
   -5.7525    6.3761    1.4265 O   0  0  0  0  0  0  0  0  0  0  0  0
   -5.5305    8.3858    0.3758 N   0  0  0  0  0  0  0  0  0  0  0  0
   -6.7810    9.0283    0.9432 C   0  0  1  0  0  0  0  0  0  0  0  0
   -6.7206   10.4554    0.3434 C   0  0  0  0  0  0  0  0  0  0  0  0
   -5.2681   10.7484    0.0930 C   0  0  0  0  0  0  0  0  0  0  0  0
   -4.6374    9.3957   -0.1554 C   0  0  0  0  0  0  0  0  0  0  0  0
   -8.3078    8.7054    0.6587 C   0  0  0  0  0  0  0  0  0  0  0  0
   -8.7063    8.0687   -0.3093 O   0  0  0  0  0  0  0  0  0  0  0  0
   -9.1691    9.4602    1.4704 N   0  0  0  0  0  0  0  0  0  0  0  0
  -10.6417    9.6174    1.3134 C   0  0  1  0  0  0  0  0  0  0  0  0
  -11.3241    9.7032    2.7159 C   0  0  0  0  0  0  0  0  0  0  0  0
  -10.8398   10.7612    3.7042 C   0  0  0  0  0  0  0  0  0  0  0  0
  -10.4737   12.0641    3.3327 C   0  0  0  0  0  0  0  0  0  0  0  0
  -10.1102   13.0157    4.2992 C   0  0  0  0  0  0  0  0  0  0  0  0
  -10.1225   12.6848    5.6481 C   0  0  0  0  0  0  0  0  0  0  0  0
  -10.5005   11.4046    6.0386 C   0  0  0  0  0  0  0  0  0  0  0  0
  -10.8582   10.4552    5.0767 C   0  0  0  0  0  0  0  0  0  0  0  0
  -11.2214   10.7939    0.4269 C   0  0  0  0  0  0  0  0  0  0  0  0
  -12.3666   11.2081    0.6213 O   0  0  0  0  0  0  0  0  0  0  0  0
  -10.4646   11.2699   -0.6026 N   0  0  0  0  0  0  0  0  0  0  0  0
  -10.9180   12.4095   -1.4018 C   0  0  0  0  0  0  0  0  0  0  0  0
  -11.5858   12.0534   -2.7348 C   0  0  0  0  0  0  0  0  0  0  0  0
  -12.8760   11.2493   -2.5784 C   0  0  0  0  0  0  0  0  0  0  0  0
  -13.4692   10.9752   -3.8866 N   0  0  0  0  0  0  0  0  0  0  0  0
    1.9634    2.3264   -0.2474 C   0  0  0  0  0  0  0  0  0  0  0  0
    2.3228    1.2098   -0.6033 O   0  0  0  0  0  0  0  0  0  0  0  0
    1.9832    2.7015    1.3620 C   0  0  0  0  0  0  0  0  0  0  0  0
    2.8937    2.2788    2.5537 C   0  0  0  0  0  0  0  0  0  0  0  0
    2.3895    2.6504    3.8614 C   0  0  0  0  0  0  0  0  0  0  0  0
    1.1978    3.1655    4.0728 N   0  0  0  0  0  0  0  0  0  0  0  0
    0.3910    3.3542    3.0294 C   0  0  0  0  0  0  0  0  0  0  0  0
    0.7543    3.2643    1.7016 C   0  0  0  0  0  0  0  0  0  0  0  0
    3.0040    2.4071    5.0912 C   0  0  0  0  0  0  0  0  0  0  0  0
    4.1642    1.6740    5.2029 C   0  0  0  0  0  0  0  0  0  0  0  0
    4.7419    1.2541    4.0166 C   0  0  0  0  0  0  0  0  0  0  0  0
    4.1485    1.5591    2.7372 C   0  0  0  0  0  0  0  0  0  0  0  0
    0.9919    4.0803   -0.7583 H   0  0  0  0  0  0  0  0  0  0  0  0
    0.8195    4.2541   -2.9308 H   0  0  0  0  0  0  0  0  0  0  0  0
    1.9830    3.8155   -6.9694 H   0  0  0  0  0  0  0  0  0  0  0  0
    4.1093    3.0194   -7.6545 H   0  0  0  0  0  0  0  0  0  0  0  0
    4.0512    1.6258   -6.5807 H   0  0  0  0  0  0  0  0  0  0  0  0
    4.8517    4.4139   -5.9232 H   0  0  0  0  0  0  0  0  0  0  0  0
    5.1773    2.9296   -5.0522 H   0  0  0  0  0  0  0  0  0  0  0  0
    3.0334    4.8973   -4.5991 H   0  0  0  0  0  0  0  0  0  0  0  0
    3.5057    3.5502   -3.5356 H   0  0  0  0  0  0  0  0  0  0  0  0
   -0.5248    2.2677   -6.6874 H   0  0  0  0  0  0  0  0  0  0  0  0
   -0.6320    0.2476   -8.7047 H   0  0  0  0  0  0  0  0  0  0  0  0
   -0.3195    2.0504  -10.4533 H   0  0  0  0  0  0  0  0  0  0  0  0
   -1.8967    1.3178  -10.5354 H   0  0  0  0  0  0  0  0  0  0  0  0
   -0.2261    4.2131   -8.8449 H   0  0  0  0  0  0  0  0  0  0  0  0
   -1.3363    6.3533   -8.3774 H   0  0  0  0  0  0  0  0  0  0  0  0
   -3.7094    6.7391   -9.1069 H   0  0  0  0  0  0  0  0  0  0  0  0
   -4.8978    4.9574  -10.3201 H   0  0  0  0  0  0  0  0  0  0  0  0
   -3.8204    2.7827  -10.7514 H   0  0  0  0  0  0  0  0  0  0  0  0
   -1.9027    0.4245   -6.1293 H   0  0  0  0  0  0  0  0  0  0  0  0
   -4.5175   -0.2757   -6.7570 H   0  0  0  0  0  0  0  0  0  0  0  0
   -4.6512    1.4372   -6.4061 H   0  0  0  0  0  0  0  0  0  0  0  0
   -3.6599   -0.7521   -4.5140 H   0  0  0  0  0  0  0  0  0  0  0  0
   -5.1830    0.1225   -4.3822 H   0  0  0  0  0  0  0  0  0  0  0  0
   -2.3883    1.3100   -4.1445 H   0  0  0  0  0  0  0  0  0  0  0  0
   -3.4632    0.9787   -2.7932 H   0  0  0  0  0  0  0  0  0  0  0  0
   -3.9050    2.9183   -4.9565 H   0  0  0  0  0  0  0  0  0  0  0  0
   -3.5295    3.2661   -3.4191 H   0  0  0  0  0  0  0  0  0  0  0  0
   -0.9374    1.8345   -2.4727 H   0  0  0  0  0  0  0  0  0  0  0  0
   -1.2083    3.1251   -3.6349 H   0  0  0  0  0  0  0  0  0  0  0  0
   -4.5281    5.9552   -1.6500 H   0  0  0  0  0  0  0  0  0  0  0  0
   -3.6593    7.4496   -1.7943 H   0  0  0  0  0  0  0  0  0  0  0  0
   -3.5313    5.5404    0.5824 H   0  0  0  0  0  0  0  0  0  0  0  0
   -2.7004    7.7064    1.7936 H   0  0  0  0  0  0  0  0  0  0  0  0
    1.5756    6.2654    1.0011 H   0  0  0  0  0  0  0  0  0  0  0  0
   -0.4949    9.3384    5.5602 H   0  0  0  0  0  0  0  0  0  0  0  0
    1.0562    9.1073    7.4605 H   0  0  0  0  0  0  0  0  0  0  0  0
    3.0918    7.7115    7.2289 H   0  0  0  0  0  0  0  0  0  0  0  0
    3.5743    6.5861    5.0875 H   0  0  0  0  0  0  0  0  0  0  0  0
   -1.2619    8.5592    3.2637 H   0  0  0  0  0  0  0  0  0  0  0  0
   -6.6402    9.0582    2.0322 H   0  0  0  0  0  0  0  0  0  0  0  0
   -7.1878   11.2069    0.9902 H   0  0  0  0  0  0  0  0  0  0  0  0
   -7.2554   10.4869   -0.6173 H   0  0  0  0  0  0  0  0  0  0  0  0
   -4.8272   11.2353    0.9676 H   0  0  0  0  0  0  0  0  0  0  0  0
   -5.1364   11.4121   -0.7673 H   0  0  0  0  0  0  0  0  0  0  0  0
   -3.6691    9.3489    0.3437 H   0  0  0  0  0  0  0  0  0  0  0  0
   -4.5153    9.2192   -1.2233 H   0  0  0  0  0  0  0  0  0  0  0  0
   -8.8121    9.7243    2.3826 H   0  0  0  0  0  0  0  0  0  0  0  0
  -11.0033    8.7090    0.8162 H   0  0  0  0  0  0  0  0  0  0  0  0
  -11.1892    8.7224    3.1895 H   0  0  0  0  0  0  0  0  0  0  0  0
  -12.4096    9.8375    2.6101 H   0  0  0  0  0  0  0  0  0  0  0  0
  -10.4890   12.3914    2.2981 H   0  0  0  0  0  0  0  0  0  0  0  0
   -9.8373   14.0228    3.9909 H   0  0  0  0  0  0  0  0  0  0  0  0
   -9.8600   13.4301    6.3949 H   0  0  0  0  0  0  0  0  0  0  0  0
  -10.5384   11.1495    7.0953 H   0  0  0  0  0  0  0  0  0  0  0  0
  -11.1709    9.4691    5.4151 H   0  0  0  0  0  0  0  0  0  0  0  0
   -9.6475   10.7472   -0.8925 H   0  0  0  0  0  0  0  0  0  0  0  0
  -10.0330   13.0241   -1.6033 H   0  0  0  0  0  0  0  0  0  0  0  0
  -11.6026   13.0294   -0.8085 H   0  0  0  0  0  0  0  0  0  0  0  0
  -10.8755   11.5074   -3.3667 H   0  0  0  0  0  0  0  0  0  0  0  0
  -11.8162   12.9922   -3.2595 H   0  0  0  0  0  0  0  0  0  0  0  0
  -13.5971   11.7969   -1.9624 H   0  0  0  0  0  0  0  0  0  0  0  0
  -12.6665   10.2926   -2.0919 H   0  0  0  0  0  0  0  0  0  0  0  0
  -13.6902   11.8487   -4.3651 H   0  0  0  0  0  0  0  0  0  0  0  0
  -14.3577   10.4905   -3.7617 H   0  0  0  0  0  0  0  0  0  0  0  0
   -0.6496    3.4756    3.3094 H   0  0  0  0  0  0  0  0  0  0  0  0
   -0.0057    3.4927    0.9701 H   0  0  0  0  0  0  0  0  0  0  0  0
    2.5129    2.7276    6.0111 H   0  0  0  0  0  0  0  0  0  0  0  0
    4.5713    1.4269    6.1875 H   0  0  0  0  0  0  0  0  0  0  0  0
    5.6595    0.6600    4.0972 H   0  0  0  0  0  0  0  0  0  0  0  0
    4.6823    1.1737    1.8721 H   0  0  0  0  0  0  0  0  0  0  0  0
  1  2  1  0  0  0  0
  1 71  1  0  0  0  0
  1 83  1  0  0  0  0
  2  3  1  0  0  0  0
  2 28  1  0  0  0  0
  2 84  1  6  0  0  0
  3  4  2  0  0  0  0
  3  5  1  0  0  0  0
  5  6  1  0  0  0  0
  5  9  1  0  0  0  0
  6  7  1  0  0  0  0
  6 10  1  0  0  0  0
  6 85  1  6  0  0  0
  7  8  1  0  0  0  0
  7 86  1  0  0  0  0
  7 87  1  0  0  0  0
  8  9  1  0  0  0  0
  8 88  1  0  0  0  0
  8 89  1  0  0  0  0
  9 90  1  0  0  0  0
  9 91  1  0  0  0  0
 10 11  2  0  0  0  0
 10 12  1  0  0  0  0
 12 92  1  0  0  0  0
 13 21  1  0  0  0  0
 13 14  1  0  0  0  0
 13 12  1  0  0  0  0
 13 93  1  6  0  0  0
 14 15  1  0  0  0  0
 14 94  1  0  0  0  0
 14 95  1  0  0  0  0
 15 16  1  0  0  0  0
 15 20  2  0  0  0  0
 16 17  2  0  0  0  0
 16 96  1  0  0  0  0
 17 18  1  0  0  0  0
 17 97  1  0  0  0  0
 18 19  2  0  0  0  0
 18 98  1  0  0  0  0
 19 20  1  0  0  0  0
 19 99  1  0  0  0  0
 20100  1  0  0  0  0
 21 22  2  0  0  0  0
 21 23  1  0  0  0  0
 23 24  1  0  0  0  0
 23101  1  0  0  0  0
 24 25  1  0  0  0  0
 24102  1  0  0  0  0
 24103  1  0  0  0  0
 25 26  1  0  0  0  0
 25104  1  0  0  0  0
 25105  1  0  0  0  0
 26 27  1  0  0  0  0
 26106  1  0  0  0  0
 26107  1  0  0  0  0
 27108  1  0  0  0  0
 27109  1  0  0  0  0
 28 29  1  0  0  0  0
 28110  1  0  0  0  0
 28111  1  0  0  0  0
 29 30  1  0  0  0  0
 30 31  1  0  0  0  0
 31 32  1  0  0  0  0
 31112  1  0  0  0  0
 31113  1  0  0  0  0
 32 33  1  0  0  0  0
 32 46  1  0  0  0  0
 32114  1  1  0  0  0
 33 34  1  0  0  0  0
 33115  1  0  0  0  0
 34 35  2  0  0  0  0
 34 36  1  0  0  0  0
 36 37  1  0  0  0  0
 36 45  2  0  0  0  0
 37 38  2  0  0  0  0
 37116  1  0  0  0  0
 38 39  1  0  0  0  0
 39 40  1  0  0  0  0
 39 44  2  0  0  0  0
 40 41  2  0  0  0  0
 40 45  1  0  0  0  0
 41 42  1  0  0  0  0
 41117  1  0  0  0  0
 42 43  2  0  0  0  0
 42118  1  0  0  0  0
 43 44  1  0  0  0  0
 43119  1  0  0  0  0
 44120  1  0  0  0  0
 45121  1  0  0  0  0
 46 47  2  0  0  0  0
 46 48  1  0  0  0  0
 48 49  1  0  0  0  0
 48 52  1  0  0  0  0
 49 50  1  0  0  0  0
 49 53  1  0  0  0  0
 49122  1  1  0  0  0
 50 51  1  0  0  0  0
 50123  1  0  0  0  0
 50124  1  0  0  0  0
 51 52  1  0  0  0  0
 51125  1  0  0  0  0
 51126  1  0  0  0  0
 52127  1  0  0  0  0
 52128  1  0  0  0  0
 53 54  2  0  0  0  0
 53 55  1  0  0  0  0
 55 56  1  0  0  0  0
 55129  1  0  0  0  0
 56 57  1  0  0  0  0
 56 64  1  0  0  0  0
 56130  1  6  0  0  0
 57 58  1  0  0  0  0
 57131  1  0  0  0  0
 57132  1  0  0  0  0
 58 59  1  0  0  0  0
 58 63  2  0  0  0  0
 59 60  2  0  0  0  0
 59133  1  0  0  0  0
 60 61  1  0  0  0  0
 60134  1  0  0  0  0
 61 62  2  0  0  0  0
 61135  1  0  0  0  0
 62 63  1  0  0  0  0
 62136  1  0  0  0  0
 63137  1  0  0  0  0
 64 65  2  0  0  0  0
 64 66  1  0  0  0  0
 66 67  1  0  0  0  0
 66138  1  0  0  0  0
 67 68  1  0  0  0  0
 67139  1  0  0  0  0
 67140  1  0  0  0  0
 68 69  1  0  0  0  0
 68141  1  0  0  0  0
 68142  1  0  0  0  0
 69 70  1  0  0  0  0
 69143  1  0  0  0  0
 69144  1  0  0  0  0
 70145  1  0  0  0  0
 70146  1  0  0  0  0
 71 72  2  0  0  0  0
 71 73  1  0  0  0  0
 73 74  1  0  0  0  0
 73 78  2  0  0  0  0
 74 75  1  0  0  0  0
 74 82  2  0  0  0  0
 75 76  1  0  0  0  0
 75 79  2  0  0  0  0
 76 77  2  0  0  0  0
 77 78  1  0  0  0  0
 77147  1  0  0  0  0
 78148  1  0  0  0  0
 79 80  1  0  0  0  0
 79149  1  0  0  0  0
 80 81  2  0  0  0  0
 80150  1  0  0  0  0
 81 82  1  0  0  0  0
 81151  1  0  0  0  0
 82152  1  0  0  0  0
M  END
$$$$
Target_lig_568
 OpenBabel04172516573D

170179  0  0  1  0  0  0  0  0999 V2000
    0.2563   -2.0145    2.1973 N   0  0  0  0  0  0  0  0  0  0  0  0
   -0.7711   -1.0457    1.7246 C   0  0  1  0  0  0  0  0  0  0  0  0
   -0.4712    0.4023    2.2154 C   0  0  0  0  0  0  0  0  0  0  0  0
   -1.0774    0.7837    3.2290 O   0  0  0  0  0  0  0  0  0  0  0  0
    0.4596    1.2620    1.6681 N   0  0  0  0  0  0  0  0  0  0  0  0
    1.4580    1.0902    0.5913 C   0  0  2  0  0  0  0  0  0  0  0  0
    2.7096    1.6934    1.2369 C   0  0  0  0  0  0  0  0  0  0  0  0
    2.1547    2.9289    1.9512 C   0  0  0  0  0  0  0  0  0  0  0  0
    0.7668    2.4937    2.4102 C   0  0  0  0  0  0  0  0  0  0  0  0
    1.1676    1.9603   -0.6624 C   0  0  0  0  0  0  0  0  0  0  0  0
    1.9826    2.1533   -1.5597 O   0  0  0  0  0  0  0  0  0  0  0  0
   -0.0805    2.5112   -0.6751 N   0  0  0  0  0  0  0  0  0  0  0  0
   -0.5010    3.5295   -1.6351 C   0  0  1  0  0  0  0  0  0  0  0  0
   -1.4799    2.8747   -2.6154 C   0  0  0  0  0  0  0  0  0  0  0  0
   -2.6865    2.2070   -2.0124 C   0  0  0  0  0  0  0  0  0  0  0  0
   -3.2499    2.7302   -0.8661 C   0  0  0  0  0  0  0  0  0  0  0  0
   -4.5611    2.4693   -0.6087 C   0  0  0  0  0  0  0  0  0  0  0  0
   -5.2888    1.5668   -1.3561 C   0  0  0  0  0  0  0  0  0  0  0  0
   -4.6583    0.8303   -2.3345 C   0  0  0  0  0  0  0  0  0  0  0  0
   -3.3620    1.1805   -2.6916 C   0  0  0  0  0  0  0  0  0  0  0  0
   -0.9632    4.7615   -0.7947 C   0  0  0  0  0  0  0  0  0  0  0  0
   -0.4936    4.9839    0.3250 O   0  0  0  0  0  0  0  0  0  0  0  0
   -1.9403    5.5777   -1.3243 N   0  0  0  0  0  0  0  0  0  0  0  0
   -2.4100    6.7494   -0.5983 C   0  0  0  0  0  0  0  0  0  0  0  0
   -1.5006    7.9317   -0.8976 C   0  0  0  0  0  0  0  0  0  0  0  0
   -1.9403    9.1974   -0.1763 C   0  0  0  0  0  0  0  0  0  0  0  0
   -1.0515   10.2916   -0.5499 N   0  0  0  0  0  0  0  0  0  0  0  0
   -1.3226   -1.0779    0.2865 C   0  0  0  0  0  0  0  0  0  0  0  0
   -2.4298   -2.5018   -0.1692 S   0  0  0  0  0  0  0  0  0  0  0  0
   -3.9727   -2.5443    1.2138 S   0  0  0  0  0  0  0  0  0  0  0  0
   -5.0924   -1.1651    0.6939 C   0  0  0  0  0  0  0  0  0  0  0  0
   -6.3836   -0.9911    1.5603 C   0  0  1  0  0  0  0  0  0  0  0  0
   -6.2117   -0.9052    3.0294 N   0  0  0  0  0  0  0  0  0  0  0  0
   -5.0830   -0.4250    3.6739 C   0  0  0  0  0  0  0  0  0  0  0  0
   -4.1283    0.0330    3.0630 O   0  0  0  0  0  0  0  0  0  0  0  0
   -5.0487   -0.4833    5.1545 C   0  0  0  0  0  0  0  0  0  0  0  0
   -4.4133    0.5008    5.9323 C   0  0  0  0  0  0  0  0  0  0  0  0
   -4.1568    0.2962    7.2682 N   0  0  0  0  0  0  0  0  0  0  0  0
   -4.5213   -0.8910    7.8523 C   0  0  0  0  0  0  0  0  0  0  0  0
   -5.2147   -1.8816    7.0929 C   0  0  0  0  0  0  0  0  0  0  0  0
   -5.6093   -3.1157    7.6147 C   0  0  0  0  0  0  0  0  0  0  0  0
   -5.3529   -3.3539    8.9314 C   0  0  0  0  0  0  0  0  0  0  0  0
   -4.7126   -2.4275    9.7166 C   0  0  0  0  0  0  0  0  0  0  0  0
   -4.2566   -1.2173    9.1970 C   0  0  0  0  0  0  0  0  0  0  0  0
   -4.6486   -2.8611   11.0120 O   0  0  0  0  0  0  0  0  0  0  0  0
   -5.5625   -3.9846   10.9491 C   0  0  0  0  0  0  0  0  0  0  0  0
   -5.7276   -4.4703    9.6072 O   0  0  0  0  0  0  0  0  0  0  0  0
   -5.4973   -1.6462    5.7587 C   0  0  0  0  0  0  0  0  0  0  0  0
   -3.8578    1.7268    5.2118 C   0  0  0  0  0  0  0  0  0  0  0  0
   -3.6860    3.0786    5.8797 C   0  0  0  0  0  0  0  0  0  0  0  0
   -7.3976    0.0667    0.9178 C   0  0  0  0  0  0  0  0  0  0  0  0
   -8.2511   -0.3336    0.1134 O   0  0  0  0  0  0  0  0  0  0  0  0
   -7.2496    1.4323    1.0972 N   0  0  0  0  0  0  0  0  0  0  0  0
   -8.1970    2.4912    0.6140 C   0  0  1  0  0  0  0  0  0  0  0  0
   -7.3118    3.7616    0.7546 C   0  0  0  0  0  0  0  0  0  0  0  0
   -6.4395    3.5083    1.9809 C   0  0  0  0  0  0  0  0  0  0  0  0
   -6.3374    1.9936    2.0807 C   0  0  0  0  0  0  0  0  0  0  0  0
   -8.9432    2.6533   -0.7846 C   0  0  0  0  0  0  0  0  0  0  0  0
   -9.4657    3.7339   -1.0753 O   0  0  0  0  0  0  0  0  0  0  0  0
   -9.0566    1.5829   -1.6407 N   0  0  0  0  0  0  0  0  0  0  0  0
   -9.9421    1.5943   -2.8516 C   0  0  1  0  0  0  0  0  0  0  0  0
  -11.4857    1.4707   -2.5698 C   0  0  0  0  0  0  0  0  0  0  0  0
  -12.1657    0.1682   -2.1343 C   0  0  0  0  0  0  0  0  0  0  0  0
  -11.5122   -1.0520   -1.9149 C   0  0  0  0  0  0  0  0  0  0  0  0
  -12.2053   -2.1876   -1.4635 C   0  0  0  0  0  0  0  0  0  0  0  0
  -13.5892   -2.1306   -1.2371 C   0  0  0  0  0  0  0  0  0  0  0  0
  -14.2822   -0.9466   -1.4974 C   0  0  0  0  0  0  0  0  0  0  0  0
  -13.5695    0.1787   -1.9484 C   0  0  0  0  0  0  0  0  0  0  0  0
   -9.6474    2.7576   -3.9043 C   0  0  0  0  0  0  0  0  0  0  0  0
  -10.5098    3.2037   -4.6621 O   0  0  0  0  0  0  0  0  0  0  0  0
   -8.3029    3.0771   -4.0883 N   0  0  0  0  0  0  0  0  0  0  0  0
   -7.7853    3.9024   -5.1865 C   0  0  0  0  0  0  0  0  0  0  0  0
   -7.4077    5.3437   -4.8152 C   0  0  0  0  0  0  0  0  0  0  0  0
   -6.3368    5.4856   -3.7314 C   0  0  0  0  0  0  0  0  0  0  0  0
   -5.0331    4.9385   -4.1068 N   0  0  0  0  0  0  0  0  0  0  0  0
    1.0743   -2.7621    1.3891 C   0  0  0  0  0  0  0  0  0  0  0  0
    0.9344   -2.6940    0.1667 O   0  0  0  0  0  0  0  0  0  0  0  0
    2.2269   -3.6062    1.9172 C   0  0  0  0  0  0  0  0  0  0  0  0
    2.7307   -3.7561    3.2553 C   0  0  0  0  0  0  0  0  0  0  0  0
    4.0480   -4.3242    3.3405 C   0  0  0  0  0  0  0  0  0  0  0  0
    4.7547   -4.7778    2.3225 N   0  0  0  0  0  0  0  0  0  0  0  0
    4.3032   -4.5612    1.0869 C   0  0  0  0  0  0  0  0  0  0  0  0
    3.0450   -4.0459    0.8486 C   0  0  0  0  0  0  0  0  0  0  0  0
    5.3729   -4.5319    0.0300 C   0  0  0  0  0  0  0  0  0  0  0  0
    5.9923   -3.1329    0.0051 C   0  0  0  0  0  0  0  0  0  0  0  0
    4.8110   -4.2689    4.4813 C   0  0  0  0  0  0  0  0  0  0  0  0
    4.3147   -3.5838    5.5480 C   0  0  0  0  0  0  0  0  0  0  0  0
    3.0136   -3.1618    5.5768 C   0  0  0  0  0  0  0  0  0  0  0  0
    2.1673   -3.3195    4.4906 C   0  0  0  0  0  0  0  0  0  0  0  0
    2.7402   -2.4859    6.7282 O   0  0  0  0  0  0  0  0  0  0  0  0
    4.0831   -2.2910    7.2359 C   0  0  0  0  0  0  0  0  0  0  0  0
    5.0371   -3.1762    6.6222 O   0  0  0  0  0  0  0  0  0  0  0  0
    0.3122   -2.0924    3.1975 H   0  0  0  0  0  0  0  0  0  0  0  0
   -1.6259   -1.3208    2.3564 H   0  0  0  0  0  0  0  0  0  0  0  0
    1.5611    0.0493    0.2858 H   0  0  0  0  0  0  0  0  0  0  0  0
    3.5001    1.9612    0.5286 H   0  0  0  0  0  0  0  0  0  0  0  0
    3.1257    0.9975    1.9734 H   0  0  0  0  0  0  0  0  0  0  0  0
    2.0764    3.7765    1.2583 H   0  0  0  0  0  0  0  0  0  0  0  0
    2.7838    3.2503    2.7860 H   0  0  0  0  0  0  0  0  0  0  0  0
    0.0075    3.2469    2.1750 H   0  0  0  0  0  0  0  0  0  0  0  0
    0.7449    2.3153    3.4892 H   0  0  0  0  0  0  0  0  0  0  0  0
   -0.6387    2.3945    0.1649 H   0  0  0  0  0  0  0  0  0  0  0  0
    0.3622    3.8854   -2.2074 H   0  0  0  0  0  0  0  0  0  0  0  0
   -0.9390    2.1196   -3.1971 H   0  0  0  0  0  0  0  0  0  0  0  0
   -1.8589    3.6207   -3.3242 H   0  0  0  0  0  0  0  0  0  0  0  0
   -2.7680    3.4194   -0.1869 H   0  0  0  0  0  0  0  0  0  0  0  0
   -4.9642    3.0378    0.1996 H   0  0  0  0  0  0  0  0  0  0  0  0
   -6.3372    1.4014   -1.1610 H   0  0  0  0  0  0  0  0  0  0  0  0
   -5.1962    0.0346   -2.8386 H   0  0  0  0  0  0  0  0  0  0  0  0
   -2.9003    0.6728   -3.5327 H   0  0  0  0  0  0  0  0  0  0  0  0
   -2.1779    5.5121   -2.3049 H   0  0  0  0  0  0  0  0  0  0  0  0
   -2.4295    6.5359    0.4783 H   0  0  0  0  0  0  0  0  0  0  0  0
   -3.4396    6.9483   -0.9161 H   0  0  0  0  0  0  0  0  0  0  0  0
   -1.4924    8.1009   -1.9819 H   0  0  0  0  0  0  0  0  0  0  0  0
   -0.4712    7.6794   -0.6121 H   0  0  0  0  0  0  0  0  0  0  0  0
   -1.9117    9.0531    0.9093 H   0  0  0  0  0  0  0  0  0  0  0  0
   -2.9668    9.4571   -0.4550 H   0  0  0  0  0  0  0  0  0  0  0  0
   -0.0989   10.0756   -0.2542 H   0  0  0  0  0  0  0  0  0  0  0  0
   -1.3192   11.1400   -0.0541 H   0  0  0  0  0  0  0  0  0  0  0  0
   -0.5183   -1.0486   -0.4548 H   0  0  0  0  0  0  0  0  0  0  0  0
   -1.9133   -0.1778    0.0910 H   0  0  0  0  0  0  0  0  0  0  0  0
   -5.3873   -1.3731   -0.3402 H   0  0  0  0  0  0  0  0  0  0  0  0
   -4.4962   -0.2519    0.6963 H   0  0  0  0  0  0  0  0  0  0  0  0
   -6.9302   -1.9423    1.4562 H   0  0  0  0  0  0  0  0  0  0  0  0
   -6.9942   -1.2183    3.5895 H   0  0  0  0  0  0  0  0  0  0  0  0
   -6.1180   -3.8663    7.0195 H   0  0  0  0  0  0  0  0  0  0  0  0
   -3.7113   -0.5272    9.8349 H   0  0  0  0  0  0  0  0  0  0  0  0
   -6.5503   -3.6546   11.3011 H   0  0  0  0  0  0  0  0  0  0  0  0
   -5.2215   -4.8021   11.5933 H   0  0  0  0  0  0  0  0  0  0  0  0
   -6.0095   -2.4093    5.1793 H   0  0  0  0  0  0  0  0  0  0  0  0
   -4.5386    1.9513    4.3834 H   0  0  0  0  0  0  0  0  0  0  0  0
   -2.8958    1.4403    4.7762 H   0  0  0  0  0  0  0  0  0  0  0  0
   -4.6396    3.6160    5.9254 H   0  0  0  0  0  0  0  0  0  0  0  0
   -3.0259    3.6895    5.2460 H   0  0  0  0  0  0  0  0  0  0  0  0
   -3.2493    3.0244    6.8759 H   0  0  0  0  0  0  0  0  0  0  0  0
   -8.9831    2.5454    1.3766 H   0  0  0  0  0  0  0  0  0  0  0  0
   -7.8653    4.6985    0.8459 H   0  0  0  0  0  0  0  0  0  0  0  0
   -6.7131    3.8883   -0.1569 H   0  0  0  0  0  0  0  0  0  0  0  0
   -6.9093    3.9170    2.8777 H   0  0  0  0  0  0  0  0  0  0  0  0
   -5.4476    3.9780    1.9251 H   0  0  0  0  0  0  0  0  0  0  0  0
   -6.6413    1.6749    3.0800 H   0  0  0  0  0  0  0  0  0  0  0  0
   -5.3276    1.6412    1.8744 H   0  0  0  0  0  0  0  0  0  0  0  0
   -8.8898    0.6729   -1.2071 H   0  0  0  0  0  0  0  0  0  0  0  0
   -9.6423    0.6937   -3.4043 H   0  0  0  0  0  0  0  0  0  0  0  0
  -12.0181    1.7507   -3.4903 H   0  0  0  0  0  0  0  0  0  0  0  0
  -11.7534    2.2221   -1.8178 H   0  0  0  0  0  0  0  0  0  0  0  0
  -10.4459   -1.1641   -2.0872 H   0  0  0  0  0  0  0  0  0  0  0  0
  -11.7000   -3.1123   -1.2728 H   0  0  0  0  0  0  0  0  0  0  0  0
  -14.1321   -2.9934   -0.8673 H   0  0  0  0  0  0  0  0  0  0  0  0
  -15.3626   -0.8846   -1.3571 H   0  0  0  0  0  0  0  0  0  0  0  0
  -14.1332    1.0912   -2.1590 H   0  0  0  0  0  0  0  0  0  0  0  0
   -7.6478    2.6838   -3.4291 H   0  0  0  0  0  0  0  0  0  0  0  0
   -8.5196    3.9359   -6.0006 H   0  0  0  0  0  0  0  0  0  0  0  0
   -6.9050    3.3844   -5.5829 H   0  0  0  0  0  0  0  0  0  0  0  0
   -8.3061    5.8807   -4.4880 H   0  0  0  0  0  0  0  0  0  0  0  0
   -7.0582    5.8624   -5.7210 H   0  0  0  0  0  0  0  0  0  0  0  0
   -6.6773    5.0095   -2.8075 H   0  0  0  0  0  0  0  0  0  0  0  0
   -6.1971    6.5514   -3.5127 H   0  0  0  0  0  0  0  0  0  0  0  0
   -5.1242    3.9557   -4.3599 H   0  0  0  0  0  0  0  0  0  0  0  0
   -4.4340    4.9461   -3.2828 H   0  0  0  0  0  0  0  0  0  0  0  0
    2.7715   -3.8495   -0.1858 H   0  0  0  0  0  0  0  0  0  0  0  0
    4.9729   -4.8030   -0.9508 H   0  0  0  0  0  0  0  0  0  0  0  0
    6.1491   -5.2624    0.2876 H   0  0  0  0  0  0  0  0  0  0  0  0
    5.2950   -2.4037   -0.4229 H   0  0  0  0  0  0  0  0  0  0  0  0
    6.9076   -3.1231   -0.5918 H   0  0  0  0  0  0  0  0  0  0  0  0
    6.2457   -2.7815    1.0143 H   0  0  0  0  0  0  0  0  0  0  0  0
    5.8402   -4.6151    4.4744 H   0  0  0  0  0  0  0  0  0  0  0  0
    1.1358   -3.0233    4.6059 H   0  0  0  0  0  0  0  0  0  0  0  0
    4.1033   -2.4610    8.3155 H   0  0  0  0  0  0  0  0  0  0  0  0
    4.3831   -1.2515    7.0367 H   0  0  0  0  0  0  0  0  0  0  0  0
  1  2  1  0  0  0  0
  1 76  1  0  0  0  0
  1 93  1  0  0  0  0
  2  3  1  0  0  0  0
  2 28  1  0  0  0  0
  2 94  1  1  0  0  0
  3  4  2  0  0  0  0
  3  5  1  0  0  0  0
  5  6  1  0  0  0  0
  5  9  1  0  0  0  0
  6  7  1  0  0  0  0
  6 10  1  0  0  0  0
  6 95  1  6  0  0  0
  7  8  1  0  0  0  0
  7 96  1  0  0  0  0
  7 97  1  0  0  0  0
  8  9  1  0  0  0  0
  8 98  1  0  0  0  0
  8 99  1  0  0  0  0
  9100  1  0  0  0  0
  9101  1  0  0  0  0
 10 11  2  0  0  0  0
 10 12  1  0  0  0  0
 12 13  1  0  0  0  0
 12102  1  0  0  0  0
 13 14  1  0  0  0  0
 13 21  1  0  0  0  0
 13103  1  6  0  0  0
 14 15  1  0  0  0  0
 14104  1  0  0  0  0
 14105  1  0  0  0  0
 15 16  1  0  0  0  0
 15 20  2  0  0  0  0
 16 17  2  0  0  0  0
 16106  1  0  0  0  0
 17 18  1  0  0  0  0
 17107  1  0  0  0  0
 18 19  2  0  0  0  0
 18108  1  0  0  0  0
 19 20  1  0  0  0  0
 19109  1  0  0  0  0
 20110  1  0  0  0  0
 21 22  2  0  0  0  0
 21 23  1  0  0  0  0
 23 24  1  0  0  0  0
 23111  1  0  0  0  0
 24 25  1  0  0  0  0
 24112  1  0  0  0  0
 24113  1  0  0  0  0
 25 26  1  0  0  0  0
 25114  1  0  0  0  0
 25115  1  0  0  0  0
 26 27  1  0  0  0  0
 26116  1  0  0  0  0
 26117  1  0  0  0  0
 27118  1  0  0  0  0
 27119  1  0  0  0  0
 28 29  1  0  0  0  0
 28120  1  0  0  0  0
 28121  1  0  0  0  0
 29 30  1  0  0  0  0
 30 31  1  0  0  0  0
 31 32  1  0  0  0  0
 31122  1  0  0  0  0
 31123  1  0  0  0  0
 32 33  1  0  0  0  0
 32 51  1  0  0  0  0
 32124  1  6  0  0  0
 33 34  1  0  0  0  0
 33125  1  0  0  0  0
 34 35  2  0  0  0  0
 34 36  1  0  0  0  0
 36 37  1  0  0  0  0
 36 48  2  0  0  0  0
 37 38  2  0  0  0  0
 37 49  1  0  0  0  0
 38 39  1  0  0  0  0
 39 40  1  0  0  0  0
 39 44  2  0  0  0  0
 40 41  2  0  0  0  0
 40 48  1  0  0  0  0
 41 42  1  0  0  0  0
 41126  1  0  0  0  0
 42 43  2  0  0  0  0
 42 47  1  0  0  0  0
 43 44  1  0  0  0  0
 43 45  1  0  0  0  0
 44127  1  0  0  0  0
 45 46  1  0  0  0  0
 46 47  1  0  0  0  0
 46128  1  0  0  0  0
 46129  1  0  0  0  0
 48130  1  0  0  0  0
 49 50  1  0  0  0  0
 49131  1  0  0  0  0
 49132  1  0  0  0  0
 50133  1  0  0  0  0
 50134  1  0  0  0  0
 50135  1  0  0  0  0
 51 52  2  0  0  0  0
 51 53  1  0  0  0  0
 53 54  1  0  0  0  0
 53 57  1  0  0  0  0
 54 55  1  0  0  0  0
 54 58  1  0  0  0  0
 54136  1  1  0  0  0
 55 56  1  0  0  0  0
 55137  1  0  0  0  0
 55138  1  0  0  0  0
 56 57  1  0  0  0  0
 56139  1  0  0  0  0
 56140  1  0  0  0  0
 57141  1  0  0  0  0
 57142  1  0  0  0  0
 58 59  2  0  0  0  0
 58 60  1  0  0  0  0
 60 61  1  0  0  0  0
 60143  1  0  0  0  0
 61 62  1  0  0  0  0
 61 69  1  0  0  0  0
 61144  1  6  0  0  0
 62 63  1  0  0  0  0
 62145  1  0  0  0  0
 62146  1  0  0  0  0
 63 64  1  0  0  0  0
 63 68  2  0  0  0  0
 64 65  2  0  0  0  0
 64147  1  0  0  0  0
 65 66  1  0  0  0  0
 65148  1  0  0  0  0
 66 67  2  0  0  0  0
 66149  1  0  0  0  0
 67 68  1  0  0  0  0
 67150  1  0  0  0  0
 68151  1  0  0  0  0
 69 70  2  0  0  0  0
 69 71  1  0  0  0  0
 71 72  1  0  0  0  0
 71152  1  0  0  0  0
 72 73  1  0  0  0  0
 72153  1  0  0  0  0
 72154  1  0  0  0  0
 73 74  1  0  0  0  0
 73155  1  0  0  0  0
 73156  1  0  0  0  0
 74 75  1  0  0  0  0
 74157  1  0  0  0  0
 74158  1  0  0  0  0
 75159  1  0  0  0  0
 75160  1  0  0  0  0
 76 77  2  0  0  0  0
 76 78  1  0  0  0  0
 78 79  1  0  0  0  0
 78 83  2  0  0  0  0
 79 80  1  0  0  0  0
 79 89  2  0  0  0  0
 80 81  1  0  0  0  0
 80 86  2  0  0  0  0
 81 82  2  0  0  0  0
 82 83  1  0  0  0  0
 82 84  1  0  0  0  0
 83161  1  0  0  0  0
 84 85  1  0  0  0  0
 84162  1  0  0  0  0
 84163  1  0  0  0  0
 85164  1  0  0  0  0
 85165  1  0  0  0  0
 85166  1  0  0  0  0
 86 87  1  0  0  0  0
 86167  1  0  0  0  0
 87 88  2  0  0  0  0
 87 92  1  0  0  0  0
 88 89  1  0  0  0  0
 88 90  1  0  0  0  0
 89168  1  0  0  0  0
 90 91  1  0  0  0  0
 91 92  1  0  0  0  0
 91169  1  0  0  0  0
 91170  1  0  0  0  0
M  END
$$$$
Target_lig_569
 OpenBabel04172516573D

180189  0  0  1  0  0  0  0  0999 V2000
    2.4370   -2.3142    0.8438 N   0  0  0  0  0  0  0  0  0  0  0  0
    1.7564   -1.5478   -0.2015 C   0  0  2  0  0  0  0  0  0  0  0  0
    2.5773   -1.6398   -1.4966 C   0  0  0  0  0  0  0  0  0  0  0  0
    3.3685   -0.7658   -1.8509 O   0  0  0  0  0  0  0  0  0  0  0  0
    2.4530   -2.8254   -2.1945 N   0  0  0  0  0  0  0  0  0  0  0  0
    3.2455   -3.1058   -3.3880 C   0  0  1  0  0  0  0  0  0  0  0  0
    3.7031   -4.5309   -3.0948 C   0  0  0  0  0  0  0  0  0  0  0  0
    2.4803   -5.1789   -2.4378 C   0  0  0  0  0  0  0  0  0  0  0  0
    1.7746   -4.0234   -1.7230 C   0  0  0  0  0  0  0  0  0  0  0  0
    2.3730   -3.0786   -4.6660 C   0  0  0  0  0  0  0  0  0  0  0  0
    1.4880   -3.9081   -4.8738 O   0  0  0  0  0  0  0  0  0  0  0  0
    2.6062   -2.0488   -5.5498 N   0  0  0  0  0  0  0  0  0  0  0  0
    1.9168   -2.0206   -6.8484 C   0  0  1  0  0  0  0  0  0  0  0  0
    1.4739   -0.6301   -7.3317 C   0  0  0  0  0  0  0  0  0  0  0  0
    2.5169    0.4404   -7.3762 C   0  0  0  0  0  0  0  0  0  0  0  0
    2.9555    0.8937   -8.6188 C   0  0  0  0  0  0  0  0  0  0  0  0
    3.9788    1.8276   -8.6836 C   0  0  0  0  0  0  0  0  0  0  0  0
    4.5607    2.3061   -7.5084 C   0  0  0  0  0  0  0  0  0  0  0  0
    4.0597    1.9307   -6.2576 C   0  0  0  0  0  0  0  0  0  0  0  0
    3.0109    1.0180   -6.1968 C   0  0  0  0  0  0  0  0  0  0  0  0
    2.6973   -2.6942   -7.9757 C   0  0  0  0  0  0  0  0  0  0  0  0
    2.2050   -2.9355   -9.0713 O   0  0  0  0  0  0  0  0  0  0  0  0
    4.0212   -2.9591   -7.6972 N   0  0  0  0  0  0  0  0  0  0  0  0
    4.8830   -3.4293   -8.7558 C   0  0  0  0  0  0  0  0  0  0  0  0
    6.2840   -3.7136   -8.2448 C   0  0  0  0  0  0  0  0  0  0  0  0
    7.1884   -4.1306   -9.3981 C   0  0  0  0  0  0  0  0  0  0  0  0
    8.5459   -4.3711   -8.9259 N   0  0  0  0  0  0  0  0  0  0  0  0
    1.5427   -0.0901    0.2275 C   0  0  0  0  0  0  0  0  0  0  0  0
    0.5175    0.8604   -0.9483 S   0  0  0  0  0  0  0  0  0  0  0  0
   -1.1254   -0.3689   -1.1625 S   0  0  0  0  0  0  0  0  0  0  0  0
   -1.8948   -0.2573    0.4815 C   0  0  0  0  0  0  0  0  0  0  0  0
   -2.2188    1.1814    0.8736 C   0  0  2  0  0  0  0  0  0  0  0  0
   -2.8495    1.2160    2.1901 N   0  0  0  0  0  0  0  0  0  0  0  0
   -2.1380    1.6004    3.2946 C   0  0  0  0  0  0  0  0  0  0  0  0
   -0.9375    1.8462    3.2798 O   0  0  0  0  0  0  0  0  0  0  0  0
   -2.9138    1.8316    4.5267 C   0  0  0  0  0  0  0  0  0  0  0  0
   -2.2721    1.7475    5.7696 C   0  0  0  0  0  0  0  0  0  0  0  0
   -2.7385    2.3980    6.8636 N   0  0  0  0  0  0  0  0  0  0  0  0
   -3.9246    3.0242    6.7351 C   0  0  0  0  0  0  0  0  0  0  0  0
   -4.7353    2.9306    5.5965 C   0  0  0  0  0  0  0  0  0  0  0  0
   -4.2102    2.3488    4.4548 C   0  0  0  0  0  0  0  0  0  0  0  0
   -6.0930    3.5350    5.5980 C   0  0  0  0  0  0  0  0  0  0  0  0
   -6.9640    3.1427    4.8373 O   0  0  0  0  0  0  0  0  0  0  0  0
   -6.2392    4.6287    6.6351 C   0  0  2  0  0  0  0  0  0  0  0  0
   -5.9025    3.9057    7.9556 C   0  0  1  0  0  0  0  0  0  0  0  0
   -4.3964    3.8288    7.9001 C   0  0  0  0  0  0  0  0  0  0  0  0
   -3.6524    4.4596    8.6330 O   0  0  0  0  0  0  0  0  0  0  0  0
   -6.4564    4.5473    9.1801 C   0  0  0  0  0  0  0  0  0  0  0  0
   -7.4070    5.4882    9.1002 C   0  0  0  0  0  0  0  0  0  0  0  0
   -7.9336    5.9432    7.8314 C   0  0  0  0  0  0  0  0  0  0  0  0
   -7.4650    5.4848    6.6607 C   0  0  0  0  0  0  0  0  0  0  0  0
   -1.3341    0.5950    6.0534 C   0  0  0  0  0  0  0  0  0  0  0  0
   -0.1318    0.9449    6.9059 C   0  0  0  0  0  0  0  0  0  0  0  0
   -3.2255    1.7840   -0.1142 C   0  0  0  0  0  0  0  0  0  0  0  0
   -4.2964    1.2105   -0.3332 O   0  0  0  0  0  0  0  0  0  0  0  0
   -2.9189    3.0186   -0.6631 N   0  0  0  0  0  0  0  0  0  0  0  0
   -3.8734    3.6398   -1.5832 C   0  0  1  0  0  0  0  0  0  0  0  0
   -4.4426    4.7540   -0.7166 C   0  0  0  0  0  0  0  0  0  0  0  0
   -3.1781    5.3051   -0.0533 C   0  0  0  0  0  0  0  0  0  0  0  0
   -2.2871    4.0710    0.1394 C   0  0  0  0  0  0  0  0  0  0  0  0
   -3.1458    4.2171   -2.8338 C   0  0  0  0  0  0  0  0  0  0  0  0
   -3.2839    5.3847   -3.2109 O   0  0  0  0  0  0  0  0  0  0  0  0
   -2.3797    3.3095   -3.5231 N   0  0  0  0  0  0  0  0  0  0  0  0
   -1.8087    3.7168   -4.7995 C   0  0  1  0  0  0  0  0  0  0  0  0
   -0.6522    2.8011   -5.2206 C   0  0  0  0  0  0  0  0  0  0  0  0
   -1.0141    1.3469   -5.4355 C   0  0  0  0  0  0  0  0  0  0  0  0
   -1.7914    0.9488   -6.5325 C   0  0  0  0  0  0  0  0  0  0  0  0
   -1.9932   -0.4022   -6.8173 C   0  0  0  0  0  0  0  0  0  0  0  0
   -1.4483   -1.3789   -5.9895 C   0  0  0  0  0  0  0  0  0  0  0  0
   -0.7094   -1.0019   -4.8678 C   0  0  0  0  0  0  0  0  0  0  0  0
   -0.4773    0.3534   -4.6064 C   0  0  0  0  0  0  0  0  0  0  0  0
   -2.9240    3.7893   -5.8647 C   0  0  0  0  0  0  0  0  0  0  0  0
   -4.0256    3.2632   -5.7122 O   0  0  0  0  0  0  0  0  0  0  0  0
   -2.5576    4.4206   -7.0435 N   0  0  0  0  0  0  0  0  0  0  0  0
   -3.5364    4.5428   -8.1000 C   0  0  0  0  0  0  0  0  0  0  0  0
   -2.9276    5.0422   -9.4037 C   0  0  0  0  0  0  0  0  0  0  0  0
   -4.0188    5.1844  -10.4612 C   0  0  0  0  0  0  0  0  0  0  0  0
   -3.4820    5.6934  -11.7152 N   0  0  0  0  0  0  0  0  0  0  0  0
    1.7107   -2.8510    1.8783 C   0  0  0  0  0  0  0  0  0  0  0  0
    0.4851   -2.9447    1.8430 O   0  0  0  0  0  0  0  0  0  0  0  0
    2.4352   -3.3599    3.0907 C   0  0  0  0  0  0  0  0  0  0  0  0
    3.5905   -2.8166    3.6733 C   0  0  0  0  0  0  0  0  0  0  0  0
    4.0213   -3.3707    4.8807 C   0  0  0  0  0  0  0  0  0  0  0  0
    3.3047   -4.2590    5.6030 N   0  0  0  0  0  0  0  0  0  0  0  0
    2.0994   -4.6115    5.1214 C   0  0  0  0  0  0  0  0  0  0  0  0
    1.7066   -4.3099    3.8244 C   0  0  0  0  0  0  0  0  0  0  0  0
    1.0001   -4.7975    6.1451 C   0  0  0  0  0  0  0  0  0  0  0  0
    1.3524   -5.6640    7.3347 C   0  0  0  0  0  0  0  0  0  0  0  0
    5.0919   -2.6988    5.6634 C   0  0  0  0  0  0  0  0  0  0  0  0
    5.9670   -3.3297    6.2381 O   0  0  0  0  0  0  0  0  0  0  0  0
    4.9614   -1.1822    5.5903 C   0  0  2  0  0  0  0  0  0  0  0  0
    5.2310   -0.8615    4.1202 C   0  0  2  0  0  0  0  0  0  0  0  0
    4.1834   -1.5187    3.2582 C   0  0  0  0  0  0  0  0  0  0  0  0
    3.7533   -0.9002    2.2904 O   0  0  0  0  0  0  0  0  0  0  0  0
    6.6929   -1.0838    3.8044 C   0  0  0  0  0  0  0  0  0  0  0  0
    7.5695   -0.5897    4.7024 C   0  0  0  0  0  0  0  0  0  0  0  0
    7.0705    0.0546    5.9091 C   0  0  0  0  0  0  0  0  0  0  0  0
    5.8770   -0.3133    6.4111 C   0  0  0  0  0  0  0  0  0  0  0  0
    3.3760   -1.9864    1.0382 H   0  0  0  0  0  0  0  0  0  0  0  0
    0.7929   -2.0334   -0.3666 H   0  0  0  0  0  0  0  0  0  0  0  0
    4.0902   -2.4144   -3.4904 H   0  0  0  0  0  0  0  0  0  0  0  0
    4.0377   -5.0725   -3.9820 H   0  0  0  0  0  0  0  0  0  0  0  0
    4.5256   -4.5066   -2.3683 H   0  0  0  0  0  0  0  0  0  0  0  0
    2.7609   -5.9732   -1.7405 H   0  0  0  0  0  0  0  0  0  0  0  0
    1.8151   -5.6251   -3.1830 H   0  0  0  0  0  0  0  0  0  0  0  0
    0.7157   -3.9621   -1.9902 H   0  0  0  0  0  0  0  0  0  0  0  0
    1.8646   -4.1468   -0.6512 H   0  0  0  0  0  0  0  0  0  0  0  0
    3.2842   -1.3330   -5.3223 H   0  0  0  0  0  0  0  0  0  0  0  0
    1.0141   -2.6392   -6.7567 H   0  0  0  0  0  0  0  0  0  0  0  0
    0.7245   -0.2405   -6.6754 H   0  0  0  0  0  0  0  0  0  0  0  0
    0.9648   -0.7233   -8.3057 H   0  0  0  0  0  0  0  0  0  0  0  0
    2.4792    0.5425   -9.5328 H   0  0  0  0  0  0  0  0  0  0  0  0
    4.3385    2.1634   -9.6473 H   0  0  0  0  0  0  0  0  0  0  0  0
    5.4001    2.9885   -7.5550 H   0  0  0  0  0  0  0  0  0  0  0  0
    4.4638    2.3443   -5.3451 H   0  0  0  0  0  0  0  0  0  0  0  0
    2.5858    0.7573   -5.2343 H   0  0  0  0  0  0  0  0  0  0  0  0
    4.4164   -2.5013   -6.8915 H   0  0  0  0  0  0  0  0  0  0  0  0
    4.8987   -2.6589   -9.5349 H   0  0  0  0  0  0  0  0  0  0  0  0
    4.4358   -4.3322   -9.1896 H   0  0  0  0  0  0  0  0  0  0  0  0
    6.2464   -4.5006   -7.4805 H   0  0  0  0  0  0  0  0  0  0  0  0
    6.6839   -2.8165   -7.7550 H   0  0  0  0  0  0  0  0  0  0  0  0
    6.8041   -5.0399   -9.8733 H   0  0  0  0  0  0  0  0  0  0  0  0
    7.2108   -3.3475  -10.1639 H   0  0  0  0  0  0  0  0  0  0  0  0
    8.5358   -5.0986   -8.2118 H   0  0  0  0  0  0  0  0  0  0  0  0
    8.9049   -3.5319   -8.4720 H   0  0  0  0  0  0  0  0  0  0  0  0
    1.0505   -0.0417    1.2063 H   0  0  0  0  0  0  0  0  0  0  0  0
    2.4932    0.4423    0.3412 H   0  0  0  0  0  0  0  0  0  0  0  0
   -1.2254   -0.7170    1.2177 H   0  0  0  0  0  0  0  0  0  0  0  0
   -2.7997   -0.8733    0.4692 H   0  0  0  0  0  0  0  0  0  0  0  0
   -1.3065    1.7822    0.9110 H   0  0  0  0  0  0  0  0  0  0  0  0
   -3.8431    1.0141    2.2365 H   0  0  0  0  0  0  0  0  0  0  0  0
   -4.7703    2.3572    3.5231 H   0  0  0  0  0  0  0  0  0  0  0  0
   -5.4506    5.3484    6.3583 H   0  0  0  0  0  0  0  0  0  0  0  0
   -6.2636    2.8651    7.9694 H   0  0  0  0  0  0  0  0  0  0  0  0
   -6.1394    4.1636   10.1467 H   0  0  0  0  0  0  0  0  0  0  0  0
   -7.8533    5.8887   10.0058 H   0  0  0  0  0  0  0  0  0  0  0  0
   -8.7059    6.7061    7.8573 H   0  0  0  0  0  0  0  0  0  0  0  0
   -7.8538    5.8667    5.7209 H   0  0  0  0  0  0  0  0  0  0  0  0
   -1.9387   -0.1502    6.5895 H   0  0  0  0  0  0  0  0  0  0  0  0
   -1.0004    0.1021    5.1357 H   0  0  0  0  0  0  0  0  0  0  0  0
    0.5680    1.5752    6.3508 H   0  0  0  0  0  0  0  0  0  0  0  0
   -0.4181    1.4692    7.8230 H   0  0  0  0  0  0  0  0  0  0  0  0
    0.3872    0.0249    7.1955 H   0  0  0  0  0  0  0  0  0  0  0  0
   -4.6420    2.9386   -1.9242 H   0  0  0  0  0  0  0  0  0  0  0  0
   -4.9972    5.5127   -1.2750 H   0  0  0  0  0  0  0  0  0  0  0  0
   -5.1055    4.3334    0.0516 H   0  0  0  0  0  0  0  0  0  0  0  0
   -2.6814    6.0244   -0.7154 H   0  0  0  0  0  0  0  0  0  0  0  0
   -3.3899    5.8184    0.8880 H   0  0  0  0  0  0  0  0  0  0  0  0
   -2.2352    3.8038    1.1968 H   0  0  0  0  0  0  0  0  0  0  0  0
   -1.2754    4.2483   -0.2428 H   0  0  0  0  0  0  0  0  0  0  0  0
   -2.6485    2.3348   -3.4348 H   0  0  0  0  0  0  0  0  0  0  0  0
   -1.4141    4.7364   -4.6759 H   0  0  0  0  0  0  0  0  0  0  0  0
    0.1293    2.8636   -4.4509 H   0  0  0  0  0  0  0  0  0  0  0  0
   -0.1877    3.1737   -6.1420 H   0  0  0  0  0  0  0  0  0  0  0  0
   -2.2052    1.6783   -7.2220 H   0  0  0  0  0  0  0  0  0  0  0  0
   -2.5213   -0.6853   -7.7221 H   0  0  0  0  0  0  0  0  0  0  0  0
   -1.5139   -2.4260   -6.2737 H   0  0  0  0  0  0  0  0  0  0  0  0
   -0.2121   -1.7622   -4.2709 H   0  0  0  0  0  0  0  0  0  0  0  0
    0.2067    0.6217   -3.8078 H   0  0  0  0  0  0  0  0  0  0  0  0
   -1.7995    5.0904   -7.0039 H   0  0  0  0  0  0  0  0  0  0  0  0
   -4.3145    5.2264   -7.7477 H   0  0  0  0  0  0  0  0  0  0  0  0
   -4.0032    3.5611   -8.2483 H   0  0  0  0  0  0  0  0  0  0  0  0
   -2.1537    4.3418   -9.7445 H   0  0  0  0  0  0  0  0  0  0  0  0
   -2.4318    6.0070   -9.2353 H   0  0  0  0  0  0  0  0  0  0  0  0
   -4.4967    4.2152  -10.6441 H   0  0  0  0  0  0  0  0  0  0  0  0
   -4.7983    5.8666  -10.1046 H   0  0  0  0  0  0  0  0  0  0  0  0
   -2.7541    5.0685  -12.0589 H   0  0  0  0  0  0  0  0  0  0  0  0
   -3.0339    6.5950  -11.5586 H   0  0  0  0  0  0  0  0  0  0  0  0
    0.7326   -4.6479    3.4706 H   0  0  0  0  0  0  0  0  0  0  0  0
    0.0899   -5.1744    5.6679 H   0  0  0  0  0  0  0  0  0  0  0  0
    0.7686   -3.7865    6.5125 H   0  0  0  0  0  0  0  0  0  0  0  0
    2.1634   -5.2235    7.9241 H   0  0  0  0  0  0  0  0  0  0  0  0
    1.6544   -6.6656    7.0199 H   0  0  0  0  0  0  0  0  0  0  0  0
    0.4778   -5.7502    7.9882 H   0  0  0  0  0  0  0  0  0  0  0  0
    3.9255   -0.9341    5.8588 H   0  0  0  0  0  0  0  0  0  0  0  0
    5.0494    0.2138    3.9632 H   0  0  0  0  0  0  0  0  0  0  0  0
    7.0292   -1.6514    2.9428 H   0  0  0  0  0  0  0  0  0  0  0  0
    8.6441   -0.6978    4.5955 H   0  0  0  0  0  0  0  0  0  0  0  0
    7.6702    0.8243    6.3838 H   0  0  0  0  0  0  0  0  0  0  0  0
    5.4692    0.1640    7.2968 H   0  0  0  0  0  0  0  0  0  0  0  0
  1 79  1  0  0  0  0
  1 99  1  0  0  0  0
  2 28  1  0  0  0  0
  2  3  1  0  0  0  0
  2  1  1  0  0  0  0
  2100  1  6  0  0  0
  3  4  2  0  0  0  0
  3  5  1  0  0  0  0
  5  6  1  0  0  0  0
  5  9  1  0  0  0  0
  6  7  1  0  0  0  0
  6 10  1  0  0  0  0
  6101  1  6  0  0  0
  7  8  1  0  0  0  0
  7102  1  0  0  0  0
  7103  1  0  0  0  0
  8  9  1  0  0  0  0
  8104  1  0  0  0  0
  8105  1  0  0  0  0
  9106  1  0  0  0  0
  9107  1  0  0  0  0
 10 11  2  0  0  0  0
 10 12  1  0  0  0  0
 12 13  1  0  0  0  0
 12108  1  0  0  0  0
 13 14  1  0  0  0  0
 13 21  1  0  0  0  0
 13109  1  1  0  0  0
 14 15  1  0  0  0  0
 14110  1  0  0  0  0
 14111  1  0  0  0  0
 15 16  1  0  0  0  0
 15 20  2  0  0  0  0
 16 17  2  0  0  0  0
 16112  1  0  0  0  0
 17 18  1  0  0  0  0
 17113  1  0  0  0  0
 18 19  2  0  0  0  0
 18114  1  0  0  0  0
 19 20  1  0  0  0  0
 19115  1  0  0  0  0
 20116  1  0  0  0  0
 21 22  2  0  0  0  0
 21 23  1  0  0  0  0
 23 24  1  0  0  0  0
 23117  1  0  0  0  0
 24 25  1  0  0  0  0
 24118  1  0  0  0  0
 24119  1  0  0  0  0
 25 26  1  0  0  0  0
 25120  1  0  0  0  0
 25121  1  0  0  0  0
 26 27  1  0  0  0  0
 26122  1  0  0  0  0
 26123  1  0  0  0  0
 27124  1  0  0  0  0
 27125  1  0  0  0  0
 28 29  1  0  0  0  0
 28126  1  0  0  0  0
 28127  1  0  0  0  0
 29 30  1  0  0  0  0
 30 31  1  0  0  0  0
 31128  1  0  0  0  0
 31129  1  0  0  0  0
 32 54  1  0  0  0  0
 32 33  1  0  0  0  0
 32 31  1  0  0  0  0
 32130  1  1  0  0  0
 33 34  1  0  0  0  0
 33131  1  0  0  0  0
 34 35  2  0  0  0  0
 34 36  1  0  0  0  0
 36 37  1  0  0  0  0
 36 41  2  0  0  0  0
 37 38  2  0  0  0  0
 37 52  1  0  0  0  0
 38 39  1  0  0  0  0
 39 40  2  0  0  0  0
 39 46  1  0  0  0  0
 40 41  1  0  0  0  0
 40 42  1  0  0  0  0
 41132  1  0  0  0  0
 42 43  2  0  0  0  0
 42 44  1  0  0  0  0
 44 45  1  0  0  0  0
 44 51  1  0  0  0  0
 44133  1  6  0  0  0
 45 46  1  0  0  0  0
 45 48  1  0  0  0  0
 45134  1  6  0  0  0
 46 47  2  0  0  0  0
 48 49  2  0  0  0  0
 48135  1  0  0  0  0
 49 50  1  0  0  0  0
 49136  1  0  0  0  0
 50 51  2  0  0  0  0
 50137  1  0  0  0  0
 51138  1  0  0  0  0
 52 53  1  0  0  0  0
 52139  1  0  0  0  0
 52140  1  0  0  0  0
 53141  1  0  0  0  0
 53142  1  0  0  0  0
 53143  1  0  0  0  0
 54 55  2  0  0  0  0
 54 56  1  0  0  0  0
 56 57  1  0  0  0  0
 56 60  1  0  0  0  0
 57 58  1  0  0  0  0
 57 61  1  0  0  0  0
 57144  1  6  0  0  0
 58 59  1  0  0  0  0
 58145  1  0  0  0  0
 58146  1  0  0  0  0
 59 60  1  0  0  0  0
 59147  1  0  0  0  0
 59148  1  0  0  0  0
 60149  1  0  0  0  0
 60150  1  0  0  0  0
 61 62  2  0  0  0  0
 61 63  1  0  0  0  0
 63 64  1  0  0  0  0
 63151  1  0  0  0  0
 64 65  1  0  0  0  0
 64 72  1  0  0  0  0
 64152  1  1  0  0  0
 65 66  1  0  0  0  0
 65153  1  0  0  0  0
 65154  1  0  0  0  0
 66 67  1  0  0  0  0
 66 71  2  0  0  0  0
 67 68  2  0  0  0  0
 67155  1  0  0  0  0
 68 69  1  0  0  0  0
 68156  1  0  0  0  0
 69 70  2  0  0  0  0
 69157  1  0  0  0  0
 70 71  1  0  0  0  0
 70158  1  0  0  0  0
 71159  1  0  0  0  0
 72 73  2  0  0  0  0
 72 74  1  0  0  0  0
 74 75  1  0  0  0  0
 74160  1  0  0  0  0
 75 76  1  0  0  0  0
 75161  1  0  0  0  0
 75162  1  0  0  0  0
 76 77  1  0  0  0  0
 76163  1  0  0  0  0
 76164  1  0  0  0  0
 77 78  1  0  0  0  0
 77165  1  0  0  0  0
 77166  1  0  0  0  0
 78167  1  0  0  0  0
 78168  1  0  0  0  0
 79 80  2  0  0  0  0
 79 81  1  0  0  0  0
 81 82  1  0  0  0  0
 81 86  2  0  0  0  0
 82 83  2  0  0  0  0
 82 93  1  0  0  0  0
 83 84  1  0  0  0  0
 83 89  1  0  0  0  0
 84 85  2  0  0  0  0
 85 86  1  0  0  0  0
 85 87  1  0  0  0  0
 86169  1  0  0  0  0
 87 88  1  0  0  0  0
 87170  1  0  0  0  0
 87171  1  0  0  0  0
 88172  1  0  0  0  0
 88173  1  0  0  0  0
 88174  1  0  0  0  0
 89 90  2  0  0  0  0
 89 91  1  0  0  0  0
 91 92  1  0  0  0  0
 91 98  1  0  0  0  0
 91175  1  1  0  0  0
 92 93  1  0  0  0  0
 92 95  1  0  0  0  0
 92176  1  6  0  0  0
 93 94  2  0  0  0  0
 95 96  2  0  0  0  0
 95177  1  0  0  0  0
 96 97  1  0  0  0  0
 96178  1  0  0  0  0
 97 98  2  0  0  0  0
 97179  1  0  0  0  0
 98180  1  0  0  0  0
M  END
$$$$
Target_lig_570
 OpenBabel04172516573D

 86 89  0  0  1  0  0  0  0  0999 V2000
   -1.5660   -0.4209    2.3921 N   0  0  0  0  0  0  0  0  0  0  0  0
   -0.6637    0.2862    3.2937 C   0  0  2  0  0  0  0  0  0  0  0  0
    0.7255   -0.3967    3.2096 C   0  0  0  0  0  0  0  0  0  0  0  0
    0.9765   -1.4402    3.8166 O   0  0  0  0  0  0  0  0  0  0  0  0
    1.6447    0.1672    2.3406 N   0  0  0  0  0  0  0  0  0  0  0  0
    1.2903    1.0722    1.2390 C   0  0  2  0  0  0  0  0  0  0  0  0
    2.3196    0.7359    0.1600 C   0  0  0  0  0  0  0  0  0  0  0  0
    3.5497    0.3271    0.9604 C   0  0  0  0  0  0  0  0  0  0  0  0
    2.9514   -0.4398    2.1305 C   0  0  0  0  0  0  0  0  0  0  0  0
    1.3185    2.5781    1.6123 C   0  0  0  0  0  0  0  0  0  0  0  0
    0.6731    3.3954    0.9582 O   0  0  0  0  0  0  0  0  0  0  0  0
    2.2271    2.9544    2.5854 N   0  0  0  0  0  0  0  0  0  0  0  0
    2.4164    4.3609    2.9730 C   0  0  2  0  0  0  0  0  0  0  0  0
    3.8766    4.8283    2.8548 C   0  0  0  0  0  0  0  0  0  0  0  0
    4.6069    4.8286    1.5423 C   0  0  0  0  0  0  0  0  0  0  0  0
    4.0081    5.0951    0.3164 C   0  0  0  0  0  0  0  0  0  0  0  0
    4.8008    5.1266   -0.8394 C   0  0  0  0  0  0  0  0  0  0  0  0
    6.1688    4.9065   -0.7638 C   0  0  0  0  0  0  0  0  0  0  0  0
    6.7830    4.6613    0.4550 C   0  0  0  0  0  0  0  0  0  0  0  0
    6.0007    4.6364    1.6055 C   0  0  0  0  0  0  0  0  0  0  0  0
    1.9790    4.6246    4.4428 C   0  0  0  0  0  0  0  0  0  0  0  0
    0.8609    5.0465    4.7311 O   0  0  0  0  0  0  0  0  0  0  0  0
    2.9228    4.3350    5.4199 N   0  0  0  0  0  0  0  0  0  0  0  0
    2.7035    4.6822    6.8046 C   0  0  0  0  0  0  0  0  0  0  0  0
    3.9165    4.4120    7.6878 C   0  0  0  0  0  0  0  0  0  0  0  0
    3.5104    4.5931    9.1479 C   0  0  0  0  0  0  0  0  0  0  0  0
    4.6244    4.3240   10.0452 N   0  0  0  0  0  0  0  0  0  0  0  0
   -1.1894    0.2932    4.7309 C   0  0  0  0  0  0  0  0  0  0  0  0
   -0.1954    0.8892    5.6861 C   0  0  0  0  0  0  0  0  0  0  0  0
   -0.1370    2.1921    5.9702 C   0  0  0  0  0  0  0  0  0  0  0  0
   -2.6958    0.1660    1.8569 C   0  0  0  0  0  0  0  0  0  0  0  0
   -3.0351    1.3195    2.0812 O   0  0  0  0  0  0  0  0  0  0  0  0
   -3.4308   -0.6639    0.8647 C   0  0  0  0  0  0  0  0  0  0  0  0
   -3.5388   -2.0635    0.9994 C   0  0  0  0  0  0  0  0  0  0  0  0
   -3.8023   -2.7729   -0.1807 C   0  0  0  0  0  0  0  0  0  0  0  0
   -4.1675   -2.1645   -1.3261 N   0  0  0  0  0  0  0  0  0  0  0  0
   -4.2515   -0.8126   -1.3635 C   0  0  0  0  0  0  0  0  0  0  0  0
   -3.8290   -0.0251   -0.3091 C   0  0  0  0  0  0  0  0  0  0  0  0
   -4.7859   -0.1864   -2.6254 C   0  0  0  0  0  0  0  0  0  0  0  0
   -3.6904    0.1239   -3.6306 C   0  0  0  0  0  0  0  0  0  0  0  0
   -3.6341   -4.1522   -0.1572 C   0  0  0  0  0  0  0  0  0  0  0  0
   -3.3096   -4.8430    1.0159 C   0  0  0  0  0  0  0  0  0  0  0  0
   -3.2334   -4.1580    2.2186 C   0  0  0  0  0  0  0  0  0  0  0  0
   -3.3640   -2.7758    2.2141 C   0  0  0  0  0  0  0  0  0  0  0  0
   -1.3099   -1.3654    2.1296 H   0  0  0  0  0  0  0  0  0  0  0  0
   -0.5947    1.3246    2.9604 H   0  0  0  0  0  0  0  0  0  0  0  0
    0.2839    0.8382    0.8764 H   0  0  0  0  0  0  0  0  0  0  0  0
    2.5146    1.5570   -0.5343 H   0  0  0  0  0  0  0  0  0  0  0  0
    1.9700   -0.1286   -0.4215 H   0  0  0  0  0  0  0  0  0  0  0  0
    4.0737    1.2206    1.3167 H   0  0  0  0  0  0  0  0  0  0  0  0
    4.2566   -0.2715    0.3797 H   0  0  0  0  0  0  0  0  0  0  0  0
    3.5510   -0.3502    3.0419 H   0  0  0  0  0  0  0  0  0  0  0  0
    2.8256   -1.5035    1.8943 H   0  0  0  0  0  0  0  0  0  0  0  0
    2.6238    2.2216    3.1596 H   0  0  0  0  0  0  0  0  0  0  0  0
    1.7828    5.0007    2.3473 H   0  0  0  0  0  0  0  0  0  0  0  0
    3.9626    5.8401    3.2731 H   0  0  0  0  0  0  0  0  0  0  0  0
    4.4779    4.1694    3.4919 H   0  0  0  0  0  0  0  0  0  0  0  0
    2.9416    5.2860    0.2326 H   0  0  0  0  0  0  0  0  0  0  0  0
    4.3375    5.3376   -1.8002 H   0  0  0  0  0  0  0  0  0  0  0  0
    6.7828    4.9346   -1.6726 H   0  0  0  0  0  0  0  0  0  0  0  0
    7.8560    4.5004    0.5297 H   0  0  0  0  0  0  0  0  0  0  0  0
    6.4930    4.4700    2.5666 H   0  0  0  0  0  0  0  0  0  0  0  0
    3.7612    3.8187    5.1985 H   0  0  0  0  0  0  0  0  0  0  0  0
    1.8557    4.0954    7.1547 H   0  0  0  0  0  0  0  0  0  0  0  0
    2.4148    5.7381    6.8568 H   0  0  0  0  0  0  0  0  0  0  0  0
    4.7375    5.0923    7.4239 H   0  0  0  0  0  0  0  0  0  0  0  0
    4.2890    3.3918    7.5214 H   0  0  0  0  0  0  0  0  0  0  0  0
    2.6843    3.9149    9.3902 H   0  0  0  0  0  0  0  0  0  0  0  0
    3.1559    5.6170    9.3101 H   0  0  0  0  0  0  0  0  0  0  0  0
    4.9220    3.3539    9.9480 H   0  0  0  0  0  0  0  0  0  0  0  0
    4.3008    4.4195   11.0087 H   0  0  0  0  0  0  0  0  0  0  0  0
   -1.4356   -0.7206    5.0674 H   0  0  0  0  0  0  0  0  0  0  0  0
   -2.1280    0.8607    4.7709 H   0  0  0  0  0  0  0  0  0  0  0  0
    0.5190    0.2090    6.1462 H   0  0  0  0  0  0  0  0  0  0  0  0
   -0.8011    2.9217    5.5125 H   0  0  0  0  0  0  0  0  0  0  0  0
    0.6045    2.5600    6.6632 H   0  0  0  0  0  0  0  0  0  0  0  0
   -3.7782    1.0560   -0.4015 H   0  0  0  0  0  0  0  0  0  0  0  0
   -5.3359    0.7300   -2.3781 H   0  0  0  0  0  0  0  0  0  0  0  0
   -5.5155   -0.8679   -3.0803 H   0  0  0  0  0  0  0  0  0  0  0  0
   -2.9600    0.8279   -3.2184 H   0  0  0  0  0  0  0  0  0  0  0  0
   -4.1225    0.5727   -4.5309 H   0  0  0  0  0  0  0  0  0  0  0  0
   -3.1556   -0.7845   -3.9269 H   0  0  0  0  0  0  0  0  0  0  0  0
   -3.7377   -4.7053   -1.0879 H   0  0  0  0  0  0  0  0  0  0  0  0
   -3.1411   -5.9160    0.9875 H   0  0  0  0  0  0  0  0  0  0  0  0
   -3.0496   -4.6878    3.1498 H   0  0  0  0  0  0  0  0  0  0  0  0
   -3.3165   -2.2443    3.1642 H   0  0  0  0  0  0  0  0  0  0  0  0
  1 31  1  0  0  0  0
  1 45  1  0  0  0  0
  2 28  1  0  0  0  0
  2  3  1  0  0  0  0
  2  1  1  0  0  0  0
  2 46  1  6  0  0  0
  3  4  2  0  0  0  0
  3  5  1  0  0  0  0
  5  6  1  0  0  0  0
  5  9  1  0  0  0  0
  6  7  1  0  0  0  0
  6 10  1  0  0  0  0
  6 47  1  6  0  0  0
  7  8  1  0  0  0  0
  7 48  1  0  0  0  0
  7 49  1  0  0  0  0
  8  9  1  0  0  0  0
  8 50  1  0  0  0  0
  8 51  1  0  0  0  0
  9 52  1  0  0  0  0
  9 53  1  0  0  0  0
 10 11  2  0  0  0  0
 10 12  1  0  0  0  0
 12 54  1  0  0  0  0
 13 21  1  0  0  0  0
 13 14  1  0  0  0  0
 13 12  1  0  0  0  0
 13 55  1  6  0  0  0
 14 15  1  0  0  0  0
 14 56  1  0  0  0  0
 14 57  1  0  0  0  0
 15 16  1  0  0  0  0
 15 20  2  0  0  0  0
 16 17  2  0  0  0  0
 16 58  1  0  0  0  0
 17 18  1  0  0  0  0
 17 59  1  0  0  0  0
 18 19  2  0  0  0  0
 18 60  1  0  0  0  0
 19 20  1  0  0  0  0
 19 61  1  0  0  0  0
 20 62  1  0  0  0  0
 21 22  2  0  0  0  0
 21 23  1  0  0  0  0
 23 24  1  0  0  0  0
 23 63  1  0  0  0  0
 24 25  1  0  0  0  0
 24 64  1  0  0  0  0
 24 65  1  0  0  0  0
 25 26  1  0  0  0  0
 25 66  1  0  0  0  0
 25 67  1  0  0  0  0
 26 27  1  0  0  0  0
 26 68  1  0  0  0  0
 26 69  1  0  0  0  0
 27 70  1  0  0  0  0
 27 71  1  0  0  0  0
 28 29  1  0  0  0  0
 28 72  1  0  0  0  0
 28 73  1  0  0  0  0
 29 30  2  0  0  0  0
 29 74  1  0  0  0  0
 30 75  1  0  0  0  0
 30 76  1  0  0  0  0
 31 32  2  0  0  0  0
 31 33  1  0  0  0  0
 33 34  1  0  0  0  0
 33 38  2  0  0  0  0
 34 35  1  0  0  0  0
 34 44  2  0  0  0  0
 35 36  1  0  0  0  0
 35 41  2  0  0  0  0
 36 37  2  0  0  0  0
 37 38  1  0  0  0  0
 37 39  1  0  0  0  0
 38 77  1  0  0  0  0
 39 40  1  0  0  0  0
 39 78  1  0  0  0  0
 39 79  1  0  0  0  0
 40 80  1  0  0  0  0
 40 81  1  0  0  0  0
 40 82  1  0  0  0  0
 41 42  1  0  0  0  0
 41 83  1  0  0  0  0
 42 43  2  0  0  0  0
 42 84  1  0  0  0  0
 43 44  1  0  0  0  0
 43 85  1  0  0  0  0
 44 86  1  0  0  0  0
M  END
$$$$
Target_lig_571
 OpenBabel04172516573D

166173  0  0  1  0  0  0  0  0999 V2000
   -2.7456   -7.0158   -1.8218 N   0  0  0  0  0  0  0  0  0  0  0  0
   -3.3258   -5.6144   -1.8645 C   0  0  2  0  0  0  0  0  0  0  0  0
   -2.4166   -4.7103   -2.7651 C   0  0  0  0  0  0  0  0  0  0  0  0
   -1.4303   -4.1267   -2.3095 O   0  0  0  0  0  0  0  0  0  0  0  0
   -2.7136   -4.6700   -4.1231 N   0  0  0  0  0  0  0  0  0  0  0  0
   -1.9509   -3.8620   -5.0975 C   0  0  2  0  0  0  0  0  0  0  0  0
   -3.0579   -3.2720   -5.9767 C   0  0  0  0  0  0  0  0  0  0  0  0
   -4.1528   -4.3356   -5.9815 C   0  0  0  0  0  0  0  0  0  0  0  0
   -4.0159   -5.0359   -4.6449 C   0  0  0  0  0  0  0  0  0  0  0  0
   -0.9085   -4.6645   -5.9403 C   0  0  0  0  0  0  0  0  0  0  0  0
   -0.7375   -5.8756   -5.8105 O   0  0  0  0  0  0  0  0  0  0  0  0
   -0.1953   -3.9220   -6.8683 N   0  0  0  0  0  0  0  0  0  0  0  0
    0.8210   -4.4839   -7.7812 C   0  0  1  0  0  0  0  0  0  0  0  0
    0.2913   -5.5875   -8.7124 C   0  0  0  0  0  0  0  0  0  0  0  0
   -0.7904   -5.1901   -9.6894 C   0  0  0  0  0  0  0  0  0  0  0  0
   -0.4661   -4.7095  -10.9649 C   0  0  0  0  0  0  0  0  0  0  0  0
   -1.4648   -4.4997  -11.9153 C   0  0  0  0  0  0  0  0  0  0  0  0
   -2.7974   -4.7362  -11.5888 C   0  0  0  0  0  0  0  0  0  0  0  0
   -3.1358   -5.1457  -10.3016 C   0  0  0  0  0  0  0  0  0  0  0  0
   -2.1371   -5.3747   -9.3581 C   0  0  0  0  0  0  0  0  0  0  0  0
    1.4707   -3.3257   -8.5862 C   0  0  0  0  0  0  0  0  0  0  0  0
    1.1067   -2.1585   -8.4353 O   0  0  0  0  0  0  0  0  0  0  0  0
    2.4921   -3.6778   -9.4538 N   0  0  0  0  0  0  0  0  0  0  0  0
    3.1437   -2.6983  -10.3074 C   0  0  0  0  0  0  0  0  0  0  0  0
    4.3459   -2.0463   -9.6238 C   0  0  0  0  0  0  0  0  0  0  0  0
    5.0095   -1.0109  -10.5329 C   0  0  0  0  0  0  0  0  0  0  0  0
    6.1572   -0.4022   -9.8676 N   0  0  0  0  0  0  0  0  0  0  0  0
   -3.5753   -4.9527   -0.4402 C   0  0  0  0  0  0  0  0  0  0  0  0
   -4.5949   -3.7306   -0.2356 C   0  0  0  0  0  0  0  0  0  0  0  0
   -4.7076   -3.0091    0.9331 C   0  0  0  0  0  0  0  0  0  0  0  0
   -5.9390   -2.1945    1.6041 C   0  0  0  0  0  0  0  0  0  0  0  0
   -5.9584   -0.6666    2.2661 C   0  0  2  0  0  0  0  0  0  0  0  0
   -7.2415   -0.3064    3.2981 N   0  0  0  0  0  0  0  0  0  0  0  0
   -7.4522   -0.5051    4.7382 C   0  0  0  0  0  0  0  0  0  0  0  0
   -6.6252   -1.1628    5.3757 O   0  0  0  0  0  0  0  0  0  0  0  0
   -8.7090    0.0373    5.5693 C   0  0  0  0  0  0  0  0  0  0  0  0
   -9.2074   -0.2935    6.8941 C   0  0  0  0  0  0  0  0  0  0  0  0
  -10.4106    0.2106    7.3920 N   0  0  0  0  0  0  0  0  0  0  0  0
  -11.1791    0.9977    6.6495 C   0  0  0  0  0  0  0  0  0  0  0  0
  -10.7320    1.4601    5.4224 C   0  0  0  0  0  0  0  0  0  0  0  0
   -9.4755    1.0215    4.9382 C   0  0  0  0  0  0  0  0  0  0  0  0
  -11.5815    2.2731    4.6680 C   0  0  0  0  0  0  0  0  0  0  0  0
  -12.8933    2.5556    5.0800 C   0  0  0  0  0  0  0  0  0  0  0  0
  -13.3367    2.0726    6.3254 C   0  0  0  0  0  0  0  0  0  0  0  0
  -12.4585    1.3379    7.1141 C   0  0  0  0  0  0  0  0  0  0  0  0
   -8.6021   -1.0818    8.0625 C   0  0  0  0  0  0  0  0  0  0  0  0
   -9.5454   -2.1351    8.7128 C   0  0  0  0  0  0  0  0  0  0  0  0
   -5.8514    0.3800    1.0181 C   0  0  0  0  0  0  0  0  0  0  0  0
   -6.8374    1.0075    0.6238 O   0  0  0  0  0  0  0  0  0  0  0  0
   -4.6084    0.4543    0.3481 N   0  0  0  0  0  0  0  0  0  0  0  0
   -4.2903    1.3013   -0.8571 C   0  0  1  0  0  0  0  0  0  0  0  0
   -2.8396    0.8445   -1.1397 C   0  0  0  0  0  0  0  0  0  0  0  0
   -2.2269    0.6069    0.2152 C   0  0  0  0  0  0  0  0  0  0  0  0
   -3.3996    0.2951    1.1285 C   0  0  0  0  0  0  0  0  0  0  0  0
   -4.9873    1.2010   -2.2738 C   0  0  0  0  0  0  0  0  0  0  0  0
   -5.8599    0.3465   -2.4860 O   0  0  0  0  0  0  0  0  0  0  0  0
   -4.5163    2.0421   -3.2681 N   0  0  0  0  0  0  0  0  0  0  0  0
   -5.2077    2.1383   -4.5977 C   0  0  1  0  0  0  0  0  0  0  0  0
   -6.6817    2.6157   -4.4744 C   0  0  0  0  0  0  0  0  0  0  0  0
   -6.8243    4.0606   -4.0412 C   0  0  0  0  0  0  0  0  0  0  0  0
   -7.5037    4.9723   -4.8612 C   0  0  0  0  0  0  0  0  0  0  0  0
   -7.6479    6.3070   -4.4760 C   0  0  0  0  0  0  0  0  0  0  0  0
   -7.1006    6.7489   -3.2739 C   0  0  0  0  0  0  0  0  0  0  0  0
   -6.4225    5.8543   -2.4517 C   0  0  0  0  0  0  0  0  0  0  0  0
   -6.3024    4.5172   -2.8243 C   0  0  0  0  0  0  0  0  0  0  0  0
   -4.5744    2.9934   -5.7445 C   0  0  0  0  0  0  0  0  0  0  0  0
   -5.2084    3.3000   -6.7618 O   0  0  0  0  0  0  0  0  0  0  0  0
   -3.2412    3.3062   -5.6166 N   0  0  0  0  0  0  0  0  0  0  0  0
   -2.5837    4.1679   -6.6054 C   0  0  0  0  0  0  0  0  0  0  0  0
   -1.4776    3.4480   -7.3634 C   0  0  0  0  0  0  0  0  0  0  0  0
   -0.8804    4.3902   -8.4046 C   0  0  0  0  0  0  0  0  0  0  0  0
    0.1970    3.7286   -9.1171 N   0  0  0  0  0  0  0  0  0  0  0  0
   -3.5798   -8.1431   -1.8094 C   0  0  0  0  0  0  0  0  0  0  0  0
   -4.7946   -8.0190   -1.7191 O   0  0  0  0  0  0  0  0  0  0  0  0
   -3.0178   -9.5304   -2.0620 C   0  0  0  0  0  0  0  0  0  0  0  0
   -1.7338   -9.9610   -1.6739 C   0  0  0  0  0  0  0  0  0  0  0  0
   -1.2496  -11.1464   -2.2751 C   0  0  0  0  0  0  0  0  0  0  0  0
   -2.0384  -11.9910   -2.9636 N   0  0  0  0  0  0  0  0  0  0  0  0
   -3.3394  -11.6726   -3.1343 C   0  0  0  0  0  0  0  0  0  0  0  0
   -3.8389  -10.4290   -2.7715 C   0  0  0  0  0  0  0  0  0  0  0  0
   -4.2255  -12.7262   -3.7605 C   0  0  0  0  0  0  0  0  0  0  0  0
   -4.2576  -12.6220   -5.2764 C   0  0  0  0  0  0  0  0  0  0  0  0
    0.1010  -11.4420   -2.1637 C   0  0  0  0  0  0  0  0  0  0  0  0
    0.9582  -10.6656   -1.3830 C   0  0  0  0  0  0  0  0  0  0  0  0
    0.4302   -9.6497   -0.6003 C   0  0  0  0  0  0  0  0  0  0  0  0
   -0.9121   -9.3079   -0.7331 C   0  0  0  0  0  0  0  0  0  0  0  0
   -1.7738   -7.1345   -2.1053 H   0  0  0  0  0  0  0  0  0  0  0  0
   -4.3081   -5.7319   -2.3181 H   0  0  0  0  0  0  0  0  0  0  0  0
   -1.3966   -3.0707   -4.5801 H   0  0  0  0  0  0  0  0  0  0  0  0
   -2.7507   -3.0117   -6.9930 H   0  0  0  0  0  0  0  0  0  0  0  0
   -3.4486   -2.3639   -5.5002 H   0  0  0  0  0  0  0  0  0  0  0  0
   -4.0168   -5.0484   -6.7985 H   0  0  0  0  0  0  0  0  0  0  0  0
   -5.1497   -3.8941   -6.0887 H   0  0  0  0  0  0  0  0  0  0  0  0
   -4.0824   -6.1253   -4.7327 H   0  0  0  0  0  0  0  0  0  0  0  0
   -4.7911   -4.6752   -3.9632 H   0  0  0  0  0  0  0  0  0  0  0  0
   -0.2515   -2.9072   -6.8767 H   0  0  0  0  0  0  0  0  0  0  0  0
    1.6081   -4.9078   -7.1452 H   0  0  0  0  0  0  0  0  0  0  0  0
   -0.0776   -6.4338   -8.1213 H   0  0  0  0  0  0  0  0  0  0  0  0
    1.1196   -6.0132   -9.2942 H   0  0  0  0  0  0  0  0  0  0  0  0
    0.5679   -4.5155  -11.2368 H   0  0  0  0  0  0  0  0  0  0  0  0
   -1.2008   -4.1596  -12.9116 H   0  0  0  0  0  0  0  0  0  0  0  0
   -3.5718   -4.5949  -12.3338 H   0  0  0  0  0  0  0  0  0  0  0  0
   -4.1737   -5.3083  -10.0301 H   0  0  0  0  0  0  0  0  0  0  0  0
   -2.4173   -5.7342   -8.3723 H   0  0  0  0  0  0  0  0  0  0  0  0
    2.8238   -4.6329   -9.4893 H   0  0  0  0  0  0  0  0  0  0  0  0
    2.4146   -1.9359  -10.6033 H   0  0  0  0  0  0  0  0  0  0  0  0
    3.4642   -3.2239  -11.2146 H   0  0  0  0  0  0  0  0  0  0  0  0
    5.0733   -2.8216   -9.3503 H   0  0  0  0  0  0  0  0  0  0  0  0
    4.0254   -1.5707   -8.6890 H   0  0  0  0  0  0  0  0  0  0  0  0
    4.2957   -0.2272  -10.8082 H   0  0  0  0  0  0  0  0  0  0  0  0
    5.3541   -1.4869  -11.4575 H   0  0  0  0  0  0  0  0  0  0  0  0
    5.8481    0.0977   -9.0340 H   0  0  0  0  0  0  0  0  0  0  0  0
    6.5741    0.3003  -10.4788 H   0  0  0  0  0  0  0  0  0  0  0  0
   -2.6060   -4.7097    0.0097 H   0  0  0  0  0  0  0  0  0  0  0  0
   -4.0024   -5.7670    0.1639 H   0  0  0  0  0  0  0  0  0  0  0  0
   -5.3470   -3.6511   -1.0224 H   0  0  0  0  0  0  0  0  0  0  0  0
   -3.9178   -3.2235    1.6557 H   0  0  0  0  0  0  0  0  0  0  0  0
   -6.1656   -2.8340    2.4690 H   0  0  0  0  0  0  0  0  0  0  0  0
   -6.7970   -2.2764    0.9263 H   0  0  0  0  0  0  0  0  0  0  0  0
   -5.0951   -0.5484    2.9199 H   0  0  0  0  0  0  0  0  0  0  0  0
   -7.9258    0.2766    2.8411 H   0  0  0  0  0  0  0  0  0  0  0  0
   -9.1094    1.4676    4.0202 H   0  0  0  0  0  0  0  0  0  0  0  0
  -11.2689    2.6526    3.6949 H   0  0  0  0  0  0  0  0  0  0  0  0
  -13.5621    3.0983    4.4478 H   0  0  0  0  0  0  0  0  0  0  0  0
  -14.3549    2.2646    6.6440 H   0  0  0  0  0  0  0  0  0  0  0  0
  -12.8083    0.9679    8.0733 H   0  0  0  0  0  0  0  0  0  0  0  0
   -8.4422   -0.3423    8.8682 H   0  0  0  0  0  0  0  0  0  0  0  0
   -7.6320   -1.5141    7.8435 H   0  0  0  0  0  0  0  0  0  0  0  0
  -10.5787   -1.7871    8.8556 H   0  0  0  0  0  0  0  0  0  0  0  0
   -9.1909   -2.4129    9.7159 H   0  0  0  0  0  0  0  0  0  0  0  0
   -9.5906   -3.0492    8.1144 H   0  0  0  0  0  0  0  0  0  0  0  0
   -4.3184    2.3573   -0.5419 H   0  0  0  0  0  0  0  0  0  0  0  0
   -2.2663    1.5502   -1.7459 H   0  0  0  0  0  0  0  0  0  0  0  0
   -2.8755   -0.1054   -1.6917 H   0  0  0  0  0  0  0  0  0  0  0  0
   -1.6893    1.4927    0.5687 H   0  0  0  0  0  0  0  0  0  0  0  0
   -1.5168   -0.2320    0.1873 H   0  0  0  0  0  0  0  0  0  0  0  0
   -3.4275    1.0019    1.9652 H   0  0  0  0  0  0  0  0  0  0  0  0
   -3.3413   -0.7153    1.5372 H   0  0  0  0  0  0  0  0  0  0  0  0
   -3.9079    2.8205   -3.0283 H   0  0  0  0  0  0  0  0  0  0  0  0
   -5.2030    1.1119   -4.9877 H   0  0  0  0  0  0  0  0  0  0  0  0
   -7.2427    1.9811   -3.7861 H   0  0  0  0  0  0  0  0  0  0  0  0
   -7.1634    2.4832   -5.4526 H   0  0  0  0  0  0  0  0  0  0  0  0
   -7.9201    4.6489   -5.8130 H   0  0  0  0  0  0  0  0  0  0  0  0
   -8.1878    6.9983   -5.1169 H   0  0  0  0  0  0  0  0  0  0  0  0
   -7.2125    7.7863   -2.9740 H   0  0  0  0  0  0  0  0  0  0  0  0
   -5.9983    6.1814   -1.5076 H   0  0  0  0  0  0  0  0  0  0  0  0
   -5.8080    3.8362   -2.1384 H   0  0  0  0  0  0  0  0  0  0  0  0
   -2.7195    2.8832   -4.8612 H   0  0  0  0  0  0  0  0  0  0  0  0
   -2.1680    5.0229   -6.0502 H   0  0  0  0  0  0  0  0  0  0  0  0
   -3.3109    4.5659   -7.3118 H   0  0  0  0  0  0  0  0  0  0  0  0
   -1.8769    2.5496   -7.8497 H   0  0  0  0  0  0  0  0  0  0  0  0
   -0.7046    3.1100   -6.6575 H   0  0  0  0  0  0  0  0  0  0  0  0
   -0.4942    5.2956   -7.9240 H   0  0  0  0  0  0  0  0  0  0  0  0
   -1.6491    4.6979   -9.1234 H   0  0  0  0  0  0  0  0  0  0  0  0
    0.9388    3.4702   -8.4689 H   0  0  0  0  0  0  0  0  0  0  0  0
    0.6047    4.3844   -9.7825 H   0  0  0  0  0  0  0  0  0  0  0  0
   -4.8575  -10.1550   -3.0345 H   0  0  0  0  0  0  0  0  0  0  0  0
   -5.2388  -12.6464   -3.3561 H   0  0  0  0  0  0  0  0  0  0  0  0
   -3.8618  -13.7230   -3.4748 H   0  0  0  0  0  0  0  0  0  0  0  0
   -4.6316  -11.6448   -5.5950 H   0  0  0  0  0  0  0  0  0  0  0  0
   -4.9153  -13.3917   -5.6928 H   0  0  0  0  0  0  0  0  0  0  0  0
   -3.2592  -12.7617   -5.7019 H   0  0  0  0  0  0  0  0  0  0  0  0
    0.5039  -12.2898   -2.7201 H   0  0  0  0  0  0  0  0  0  0  0  0
    2.0229  -10.8771   -1.3666 H   0  0  0  0  0  0  0  0  0  0  0  0
    1.0616   -9.1017    0.0933 H   0  0  0  0  0  0  0  0  0  0  0  0
   -1.3269   -8.5403   -0.0852 H   0  0  0  0  0  0  0  0  0  0  0  0
  1 73  1  0  0  0  0
  1 87  1  0  0  0  0
  2 28  1  0  0  0  0
  2  3  1  0  0  0  0
  2  1  1  0  0  0  0
  2 88  1  6  0  0  0
  3  4  2  0  0  0  0
  3  5  1  0  0  0  0
  5  6  1  0  0  0  0
  5  9  1  0  0  0  0
  6  7  1  0  0  0  0
  6 10  1  0  0  0  0
  6 89  1  1  0  0  0
  7  8  1  0  0  0  0
  7 90  1  0  0  0  0
  7 91  1  0  0  0  0
  8  9  1  0  0  0  0
  8 92  1  0  0  0  0
  8 93  1  0  0  0  0
  9 94  1  0  0  0  0
  9 95  1  0  0  0  0
 10 11  2  0  0  0  0
 10 12  1  0  0  0  0
 12 13  1  0  0  0  0
 12 96  1  0  0  0  0
 13 14  1  0  0  0  0
 13 21  1  0  0  0  0
 13 97  1  1  0  0  0
 14 15  1  0  0  0  0
 14 98  1  0  0  0  0
 14 99  1  0  0  0  0
 15 16  1  0  0  0  0
 15 20  2  0  0  0  0
 16 17  2  0  0  0  0
 16100  1  0  0  0  0
 17 18  1  0  0  0  0
 17101  1  0  0  0  0
 18 19  2  0  0  0  0
 18102  1  0  0  0  0
 19 20  1  0  0  0  0
 19103  1  0  0  0  0
 20104  1  0  0  0  0
 21 22  2  0  0  0  0
 21 23  1  0  0  0  0
 23 24  1  0  0  0  0
 23105  1  0  0  0  0
 24 25  1  0  0  0  0
 24106  1  0  0  0  0
 24107  1  0  0  0  0
 25 26  1  0  0  0  0
 25108  1  0  0  0  0
 25109  1  0  0  0  0
 26 27  1  0  0  0  0
 26110  1  0  0  0  0
 26111  1  0  0  0  0
 27112  1  0  0  0  0
 27113  1  0  0  0  0
 28 29  1  0  0  0  0
 28114  1  0  0  0  0
 28115  1  0  0  0  0
 29 30  2  0  0  0  0
 29116  1  0  0  0  0
 30 31  1  0  0  0  0
 30117  1  0  0  0  0
 31118  1  0  0  0  0
 31119  1  0  0  0  0
 32 48  1  0  0  0  0
 32 33  1  0  0  0  0
 32 31  1  0  0  0  0
 32120  1  1  0  0  0
 33 34  1  0  0  0  0
 33121  1  0  0  0  0
 34 35  2  0  0  0  0
 34 36  1  0  0  0  0
 36 37  1  0  0  0  0
 36 41  2  0  0  0  0
 37 38  2  0  0  0  0
 37 46  1  0  0  0  0
 38 39  1  0  0  0  0
 39 40  1  0  0  0  0
 39 45  2  0  0  0  0
 40 41  1  0  0  0  0
 40 42  2  0  0  0  0
 41122  1  0  0  0  0
 42 43  1  0  0  0  0
 42123  1  0  0  0  0
 43 44  2  0  0  0  0
 43124  1  0  0  0  0
 44 45  1  0  0  0  0
 44125  1  0  0  0  0
 45126  1  0  0  0  0
 46 47  1  0  0  0  0
 46127  1  0  0  0  0
 46128  1  0  0  0  0
 47129  1  0  0  0  0
 47130  1  0  0  0  0
 47131  1  0  0  0  0
 48 49  2  0  0  0  0
 48 50  1  0  0  0  0
 50 51  1  0  0  0  0
 50 54  1  0  0  0  0
 51 52  1  0  0  0  0
 51 55  1  0  0  0  0
 51132  1  1  0  0  0
 52 53  1  0  0  0  0
 52133  1  0  0  0  0
 52134  1  0  0  0  0
 53 54  1  0  0  0  0
 53135  1  0  0  0  0
 53136  1  0  0  0  0
 54137  1  0  0  0  0
 54138  1  0  0  0  0
 55 56  2  0  0  0  0
 55 57  1  0  0  0  0
 57 58  1  0  0  0  0
 57139  1  0  0  0  0
 58 59  1  0  0  0  0
 58 66  1  0  0  0  0
 58140  1  6  0  0  0
 59 60  1  0  0  0  0
 59141  1  0  0  0  0
 59142  1  0  0  0  0
 60 61  1  0  0  0  0
 60 65  2  0  0  0  0
 61 62  2  0  0  0  0
 61143  1  0  0  0  0
 62 63  1  0  0  0  0
 62144  1  0  0  0  0
 63 64  2  0  0  0  0
 63145  1  0  0  0  0
 64 65  1  0  0  0  0
 64146  1  0  0  0  0
 65147  1  0  0  0  0
 66 67  2  0  0  0  0
 66 68  1  0  0  0  0
 68 69  1  0  0  0  0
 68148  1  0  0  0  0
 69 70  1  0  0  0  0
 69149  1  0  0  0  0
 69150  1  0  0  0  0
 70 71  1  0  0  0  0
 70151  1  0  0  0  0
 70152  1  0  0  0  0
 71 72  1  0  0  0  0
 71153  1  0  0  0  0
 71154  1  0  0  0  0
 72155  1  0  0  0  0
 72156  1  0  0  0  0
 73 74  2  0  0  0  0
 73 75  1  0  0  0  0
 75 76  1  0  0  0  0
 75 80  2  0  0  0  0
 76 77  1  0  0  0  0
 76 86  2  0  0  0  0
 77 78  1  0  0  0  0
 77 83  2  0  0  0  0
 78 79  2  0  0  0  0
 79 80  1  0  0  0  0
 79 81  1  0  0  0  0
 80157  1  0  0  0  0
 81 82  1  0  0  0  0
 81158  1  0  0  0  0
 81159  1  0  0  0  0
 82160  1  0  0  0  0
 82161  1  0  0  0  0
 82162  1  0  0  0  0
 83 84  1  0  0  0  0
 83163  1  0  0  0  0
 84 85  2  0  0  0  0
 84164  1  0  0  0  0
 85 86  1  0  0  0  0
 85165  1  0  0  0  0
 86166  1  0  0  0  0
M  END
$$$$
Target_lig_572
 OpenBabel04172516573D

168175  0  0  1  0  0  0  0  0999 V2000
  -15.6935   -0.3912    2.1724 N   0  0  0  0  0  0  0  0  0  0  0  0
  -15.5176    1.0526    1.5714 C   0  0  2  0  0  0  0  0  0  0  0  0
  -15.8482    1.1801   -0.0008 C   0  0  0  0  0  0  0  0  0  0  0  0
  -14.9855    0.9070   -0.8467 O   0  0  0  0  0  0  0  0  0  0  0  0
  -17.1048    1.5986   -0.4322 N   0  0  0  0  0  0  0  0  0  0  0  0
  -17.3863    2.0796   -1.8170 C   0  0  2  0  0  0  0  0  0  0  0  0
  -18.6540    2.9496   -1.6659 C   0  0  0  0  0  0  0  0  0  0  0  0
  -19.3414    2.3906   -0.4364 C   0  0  0  0  0  0  0  0  0  0  0  0
  -18.1857    1.9881    0.4525 C   0  0  0  0  0  0  0  0  0  0  0  0
  -17.5670    1.0510   -2.9967 C   0  0  0  0  0  0  0  0  0  0  0  0
  -18.3940    1.2072   -3.8905 O   0  0  0  0  0  0  0  0  0  0  0  0
  -16.6067    0.0891   -3.0915 N   0  0  0  0  0  0  0  0  0  0  0  0
  -16.5707   -0.8718   -4.2053 C   0  0  2  0  0  0  0  0  0  0  0  0
  -15.9643   -2.2213   -3.7782 C   0  0  0  0  0  0  0  0  0  0  0  0
  -16.6454   -3.0006   -2.6707 C   0  0  0  0  0  0  0  0  0  0  0  0
  -18.0297   -2.9776   -2.4577 C   0  0  0  0  0  0  0  0  0  0  0  0
  -18.6168   -3.8201   -1.5078 C   0  0  0  0  0  0  0  0  0  0  0  0
  -17.8312   -4.6967   -0.7622 C   0  0  0  0  0  0  0  0  0  0  0  0
  -16.4533   -4.7214   -0.9530 C   0  0  0  0  0  0  0  0  0  0  0  0
  -15.8663   -3.8814   -1.9008 C   0  0  0  0  0  0  0  0  0  0  0  0
  -15.7715   -0.3227   -5.4268 C   0  0  0  0  0  0  0  0  0  0  0  0
  -14.7791   -0.8848   -5.8890 O   0  0  0  0  0  0  0  0  0  0  0  0
  -16.3124    0.8044   -6.0199 N   0  0  0  0  0  0  0  0  0  0  0  0
  -15.7628    1.3336   -7.2566 C   0  0  0  0  0  0  0  0  0  0  0  0
  -16.5133    2.5575   -7.7941 C   0  0  0  0  0  0  0  0  0  0  0  0
  -16.4671    3.7297   -6.8121 C   0  0  0  0  0  0  0  0  0  0  0  0
  -17.1575    4.8885   -7.3668 N   0  0  0  0  0  0  0  0  0  0  0  0
  -13.9976    1.7781    1.7912 C   0  0  0  0  0  0  0  0  0  0  0  0
  -14.1243    3.3630    1.9101 C   0  0  0  0  0  0  0  0  0  0  0  0
  -13.1717    4.6250    2.1873 C   0  0  0  0  0  0  0  0  0  0  0  0
  -11.9918    5.4126    1.5031 C   0  0  0  0  0  0  0  0  0  0  0  0
  -11.6681    6.8333    2.2476 C   0  0  2  0  0  0  0  0  0  0  0  0
  -11.1211    6.6054    3.6221 N   0  0  0  0  0  0  0  0  0  0  0  0
   -9.7577    6.3964    3.8567 C   0  0  0  0  0  0  0  0  0  0  0  0
   -8.9298    6.4916    2.9579 O   0  0  0  0  0  0  0  0  0  0  0  0
   -9.3026    6.0636    5.2563 C   0  0  0  0  0  0  0  0  0  0  0  0
   -8.1971    5.2380    5.5381 C   0  0  0  0  0  0  0  0  0  0  0  0
   -7.7997    4.9428    6.8196 N   0  0  0  0  0  0  0  0  0  0  0  0
   -8.4196    5.5082    7.8644 C   0  0  0  0  0  0  0  0  0  0  0  0
   -9.5038    6.3852    7.6861 C   0  0  0  0  0  0  0  0  0  0  0  0
   -9.9411    6.6471    6.3644 C   0  0  0  0  0  0  0  0  0  0  0  0
  -10.0933    6.9822    8.8181 C   0  0  0  0  0  0  0  0  0  0  0  0
   -9.6336    6.6944   10.1015 C   0  0  0  0  0  0  0  0  0  0  0  0
   -8.5782    5.8106   10.2756 C   0  0  0  0  0  0  0  0  0  0  0  0
   -7.9861    5.2293    9.1495 C   0  0  0  0  0  0  0  0  0  0  0  0
   -7.3156    4.6012    4.4934 C   0  0  0  0  0  0  0  0  0  0  0  0
   -6.0894    5.4520    4.1841 C   0  0  0  0  0  0  0  0  0  0  0  0
  -12.8891    7.8898    2.1650 C   0  0  0  0  0  0  0  0  0  0  0  0
  -14.0481    7.5303    1.9381 O   0  0  0  0  0  0  0  0  0  0  0  0
  -12.6577    9.2558    2.3018 N   0  0  0  0  0  0  0  0  0  0  0  0
  -13.7743   10.2492    2.2497 C   0  0  1  0  0  0  0  0  0  0  0  0
  -13.0811   11.5818    2.6416 C   0  0  0  0  0  0  0  0  0  0  0  0
  -11.8285   11.2123    3.4244 C   0  0  0  0  0  0  0  0  0  0  0  0
  -11.5249    9.7668    3.0638 C   0  0  0  0  0  0  0  0  0  0  0  0
  -14.6928   10.4943    0.9346 C   0  0  0  0  0  0  0  0  0  0  0  0
  -15.1221   11.6279    0.6912 O   0  0  0  0  0  0  0  0  0  0  0  0
  -15.1169    9.3834    0.2019 N   0  0  0  0  0  0  0  0  0  0  0  0
  -16.0225    9.4590   -0.9951 C   0  0  1  0  0  0  0  0  0  0  0  0
  -15.3458    9.1648   -2.4250 C   0  0  0  0  0  0  0  0  0  0  0  0
  -14.7305    7.8702   -2.9814 C   0  0  0  0  0  0  0  0  0  0  0  0
  -14.8799    7.5681   -4.3674 C   0  0  0  0  0  0  0  0  0  0  0  0
  -14.2953    6.4433   -4.9650 C   0  0  0  0  0  0  0  0  0  0  0  0
  -13.5245    5.5867   -4.1989 C   0  0  0  0  0  0  0  0  0  0  0  0
  -13.2891    5.8999   -2.8559 C   0  0  0  0  0  0  0  0  0  0  0  0
  -13.8703    7.0399   -2.2578 C   0  0  0  0  0  0  0  0  0  0  0  0
  -17.5491    8.9608   -0.9076 C   0  0  0  0  0  0  0  0  0  0  0  0
  -18.1477    8.5851   -1.9193 O   0  0  0  0  0  0  0  0  0  0  0  0
  -18.2590    9.1831    0.2767 N   0  0  0  0  0  0  0  0  0  0  0  0
  -19.7182    8.8954    0.4285 C   0  0  0  0  0  0  0  0  0  0  0  0
  -20.5154   10.0121    1.1563 C   0  0  0  0  0  0  0  0  0  0  0  0
  -22.0547    9.8534    1.3060 C   0  0  0  0  0  0  0  0  0  0  0  0
  -22.5288    8.8215    2.2422 N   0  0  0  0  0  0  0  0  0  0  0  0
  -16.9510   -0.9969    2.5062 C   0  0  0  0  0  0  0  0  0  0  0  0
  -17.9725   -0.3699    2.2826 O   0  0  0  0  0  0  0  0  0  0  0  0
  -17.1445   -2.3524    3.2253 C   0  0  0  0  0  0  0  0  0  0  0  0
  -18.4773   -2.9196    3.4789 C   0  0  0  0  0  0  0  0  0  0  0  0
  -18.5792   -3.9491    4.4476 C   0  0  0  0  0  0  0  0  0  0  0  0
  -17.5108   -4.6079    4.8915 N   0  0  0  0  0  0  0  0  0  0  0  0
  -16.3063   -4.2627    4.4073 C   0  0  0  0  0  0  0  0  0  0  0  0
  -16.0526   -3.0845    3.7013 C   0  0  0  0  0  0  0  0  0  0  0  0
  -15.2725   -5.3646    4.4821 C   0  0  0  0  0  0  0  0  0  0  0  0
  -15.1997   -6.0672    3.1255 C   0  0  0  0  0  0  0  0  0  0  0  0
  -19.8161   -4.3838    4.9289 C   0  0  0  0  0  0  0  0  0  0  0  0
  -21.0113   -3.9599    4.3636 C   0  0  0  0  0  0  0  0  0  0  0  0
  -20.9517   -3.1416    3.2503 C   0  0  0  0  0  0  0  0  0  0  0  0
  -19.7126   -2.6208    2.8282 C   0  0  0  0  0  0  0  0  0  0  0  0
  -14.8784   -0.7810    2.6152 H   0  0  0  0  0  0  0  0  0  0  0  0
  -16.2174    1.6713    2.1406 H   0  0  0  0  0  0  0  0  0  0  0  0
  -16.5518    2.7214   -2.1285 H   0  0  0  0  0  0  0  0  0  0  0  0
  -19.3325    2.9435   -2.5246 H   0  0  0  0  0  0  0  0  0  0  0  0
  -18.3711    3.9917   -1.4795 H   0  0  0  0  0  0  0  0  0  0  0  0
  -19.9393    1.5095   -0.7010 H   0  0  0  0  0  0  0  0  0  0  0  0
  -20.0030    3.1101    0.0553 H   0  0  0  0  0  0  0  0  0  0  0  0
  -18.5008    1.1610    1.0618 H   0  0  0  0  0  0  0  0  0  0  0  0
  -17.8502    2.8109    1.0900 H   0  0  0  0  0  0  0  0  0  0  0  0
  -15.8110    0.1434   -2.4542 H   0  0  0  0  0  0  0  0  0  0  0  0
  -17.5958   -1.0319   -4.5654 H   0  0  0  0  0  0  0  0  0  0  0  0
  -15.9428   -2.8889   -4.6515 H   0  0  0  0  0  0  0  0  0  0  0  0
  -14.9178   -2.0512   -3.4915 H   0  0  0  0  0  0  0  0  0  0  0  0
  -18.6776   -2.3234   -3.0352 H   0  0  0  0  0  0  0  0  0  0  0  0
  -19.6943   -3.8053   -1.3641 H   0  0  0  0  0  0  0  0  0  0  0  0
  -18.2943   -5.3678   -0.0436 H   0  0  0  0  0  0  0  0  0  0  0  0
  -15.8364   -5.4096   -0.3819 H   0  0  0  0  0  0  0  0  0  0  0  0
  -14.7902   -3.9336   -2.0551 H   0  0  0  0  0  0  0  0  0  0  0  0
  -17.2092    1.1403   -5.6649 H   0  0  0  0  0  0  0  0  0  0  0  0
  -15.7971    0.5339   -8.0073 H   0  0  0  0  0  0  0  0  0  0  0  0
  -14.7089    1.5745   -7.0890 H   0  0  0  0  0  0  0  0  0  0  0  0
  -17.5512    2.2860   -8.0012 H   0  0  0  0  0  0  0  0  0  0  0  0
  -16.0562    2.8518   -8.7494 H   0  0  0  0  0  0  0  0  0  0  0  0
  -15.4260    3.9947   -6.5942 H   0  0  0  0  0  0  0  0  0  0  0  0
  -16.9492    3.4553   -5.8724 H   0  0  0  0  0  0  0  0  0  0  0  0
  -16.6636    5.2368   -8.1863 H   0  0  0  0  0  0  0  0  0  0  0  0
  -17.1442    5.6417   -6.6779 H   0  0  0  0  0  0  0  0  0  0  0  0
  -13.3389    1.5156    0.9541 H   0  0  0  0  0  0  0  0  0  0  0  0
  -13.5495    1.3735    2.7069 H   0  0  0  0  0  0  0  0  0  0  0  0
  -14.7017    3.4118    2.8472 H   0  0  0  0  0  0  0  0  0  0  0  0
  -14.8258    3.6730    1.1287 H   0  0  0  0  0  0  0  0  0  0  0  0
  -12.9370    4.6247    3.2539 H   0  0  0  0  0  0  0  0  0  0  0  0
  -13.9533    5.3776    2.0630 H   0  0  0  0  0  0  0  0  0  0  0  0
  -12.2238    5.6599    0.4579 H   0  0  0  0  0  0  0  0  0  0  0  0
  -11.0643    4.8250    1.5005 H   0  0  0  0  0  0  0  0  0  0  0  0
  -10.8617    7.3151    1.6739 H   0  0  0  0  0  0  0  0  0  0  0  0
  -11.7836    6.3811    4.3528 H   0  0  0  0  0  0  0  0  0  0  0  0
  -10.7570    7.3459    6.2127 H   0  0  0  0  0  0  0  0  0  0  0  0
  -10.9090    7.6919    8.6985 H   0  0  0  0  0  0  0  0  0  0  0  0
  -10.0958    7.1649   10.9682 H   0  0  0  0  0  0  0  0  0  0  0  0
   -8.1801    5.5770   11.2646 H   0  0  0  0  0  0  0  0  0  0  0  0
   -7.1420    4.5489    9.2728 H   0  0  0  0  0  0  0  0  0  0  0  0
   -7.8729    4.3581    3.5854 H   0  0  0  0  0  0  0  0  0  0  0  0
   -6.9635    3.6360    4.8845 H   0  0  0  0  0  0  0  0  0  0  0  0
   -6.3669    6.4389    3.8020 H   0  0  0  0  0  0  0  0  0  0  0  0
   -5.4646    4.9581    3.4323 H   0  0  0  0  0  0  0  0  0  0  0  0
   -5.4735    5.6044    5.0784 H   0  0  0  0  0  0  0  0  0  0  0  0
  -14.4691    9.9809    3.0586 H   0  0  0  0  0  0  0  0  0  0  0  0
  -13.7338   12.2312    3.2406 H   0  0  0  0  0  0  0  0  0  0  0  0
  -12.7890   12.1602    1.7572 H   0  0  0  0  0  0  0  0  0  0  0  0
  -11.9966   11.3154    4.5044 H   0  0  0  0  0  0  0  0  0  0  0  0
  -10.9868   11.8732    3.1818 H   0  0  0  0  0  0  0  0  0  0  0  0
  -11.4091    9.1875    3.9859 H   0  0  0  0  0  0  0  0  0  0  0  0
  -10.6120    9.6708    2.4706 H   0  0  0  0  0  0  0  0  0  0  0  0
  -14.8484    8.4687    0.5626 H   0  0  0  0  0  0  0  0  0  0  0  0
  -16.2103   10.5401   -1.0878 H   0  0  0  0  0  0  0  0  0  0  0  0
  -14.5666    9.9274   -2.5693 H   0  0  0  0  0  0  0  0  0  0  0  0
  -16.1309    9.4212   -3.1538 H   0  0  0  0  0  0  0  0  0  0  0  0
  -15.4434    8.2437   -5.0168 H   0  0  0  0  0  0  0  0  0  0  0  0
  -14.4338    6.2467   -6.0273 H   0  0  0  0  0  0  0  0  0  0  0  0
  -13.0696    4.7076   -4.6519 H   0  0  0  0  0  0  0  0  0  0  0  0
  -12.6089    5.2714   -2.2822 H   0  0  0  0  0  0  0  0  0  0  0  0
  -13.5961    7.2837   -1.2369 H   0  0  0  0  0  0  0  0  0  0  0  0
  -17.7185    9.3244    1.1204 H   0  0  0  0  0  0  0  0  0  0  0  0
  -19.8029    7.9659    1.0025 H   0  0  0  0  0  0  0  0  0  0  0  0
  -20.1679    8.7182   -0.5547 H   0  0  0  0  0  0  0  0  0  0  0  0
  -20.3606   10.9472    0.6033 H   0  0  0  0  0  0  0  0  0  0  0  0
  -20.0880   10.1749    2.1530 H   0  0  0  0  0  0  0  0  0  0  0  0
  -22.5371    9.7060    0.3337 H   0  0  0  0  0  0  0  0  0  0  0  0
  -22.4460   10.8033    1.6973 H   0  0  0  0  0  0  0  0  0  0  0  0
  -22.4934    7.9114    1.7813 H   0  0  0  0  0  0  0  0  0  0  0  0
  -23.5223    8.9847    2.4307 H   0  0  0  0  0  0  0  0  0  0  0  0
  -15.0409   -2.8138    3.4560 H   0  0  0  0  0  0  0  0  0  0  0  0
  -15.5617   -6.1085    5.2411 H   0  0  0  0  0  0  0  0  0  0  0  0
  -14.2991   -4.9653    4.7742 H   0  0  0  0  0  0  0  0  0  0  0  0
  -16.1651   -6.5139    2.8555 H   0  0  0  0  0  0  0  0  0  0  0  0
  -14.4509   -6.8639    3.1345 H   0  0  0  0  0  0  0  0  0  0  0  0
  -14.9352   -5.3609    2.3307 H   0  0  0  0  0  0  0  0  0  0  0  0
  -19.8491   -5.1005    5.7507 H   0  0  0  0  0  0  0  0  0  0  0  0
  -21.9642   -4.3123    4.7564 H   0  0  0  0  0  0  0  0  0  0  0  0
  -21.8652   -2.9078    2.7088 H   0  0  0  0  0  0  0  0  0  0  0  0
  -19.7092   -2.0170    1.9245 H   0  0  0  0  0  0  0  0  0  0  0  0
  1 73  1  0  0  0  0
  1 87  1  0  0  0  0
  2 28  1  0  0  0  0
  2  3  1  0  0  0  0
  2  1  1  0  0  0  0
  2 88  1  1  0  0  0
  3  4  2  0  0  0  0
  3  5  1  0  0  0  0
  5  6  1  0  0  0  0
  5  9  1  0  0  0  0
  6  7  1  0  0  0  0
  6 10  1  0  0  0  0
  6 89  1  6  0  0  0
  7  8  1  0  0  0  0
  7 90  1  0  0  0  0
  7 91  1  0  0  0  0
  8  9  1  0  0  0  0
  8 92  1  0  0  0  0
  8 93  1  0  0  0  0
  9 94  1  0  0  0  0
  9 95  1  0  0  0  0
 10 11  2  0  0  0  0
 10 12  1  0  0  0  0
 12 96  1  0  0  0  0
 13 21  1  0  0  0  0
 13 14  1  0  0  0  0
 13 12  1  0  0  0  0
 13 97  1  6  0  0  0
 14 15  1  0  0  0  0
 14 98  1  0  0  0  0
 14 99  1  0  0  0  0
 15 16  1  0  0  0  0
 15 20  2  0  0  0  0
 16 17  2  0  0  0  0
 16100  1  0  0  0  0
 17 18  1  0  0  0  0
 17101  1  0  0  0  0
 18 19  2  0  0  0  0
 18102  1  0  0  0  0
 19 20  1  0  0  0  0
 19103  1  0  0  0  0
 20104  1  0  0  0  0
 21 22  2  0  0  0  0
 21 23  1  0  0  0  0
 23 24  1  0  0  0  0
 23105  1  0  0  0  0
 24 25  1  0  0  0  0
 24106  1  0  0  0  0
 24107  1  0  0  0  0
 25 26  1  0  0  0  0
 25108  1  0  0  0  0
 25109  1  0  0  0  0
 26 27  1  0  0  0  0
 26110  1  0  0  0  0
 26111  1  0  0  0  0
 27112  1  0  0  0  0
 27113  1  0  0  0  0
 28 29  1  0  0  0  0
 28114  1  0  0  0  0
 28115  1  0  0  0  0
 29 30  1  0  0  0  0
 29116  1  0  0  0  0
 29117  1  0  0  0  0
 30 31  1  0  0  0  0
 30118  1  0  0  0  0
 30119  1  0  0  0  0
 31120  1  0  0  0  0
 31121  1  0  0  0  0
 32 48  1  0  0  0  0
 32 33  1  0  0  0  0
 32 31  1  0  0  0  0
 32122  1  6  0  0  0
 33 34  1  0  0  0  0
 33123  1  0  0  0  0
 34 35  2  0  0  0  0
 34 36  1  0  0  0  0
 36 37  1  0  0  0  0
 36 41  2  0  0  0  0
 37 38  2  0  0  0  0
 37 46  1  0  0  0  0
 38 39  1  0  0  0  0
 39 40  1  0  0  0  0
 39 45  2  0  0  0  0
 40 41  1  0  0  0  0
 40 42  2  0  0  0  0
 41124  1  0  0  0  0
 42 43  1  0  0  0  0
 42125  1  0  0  0  0
 43 44  2  0  0  0  0
 43126  1  0  0  0  0
 44 45  1  0  0  0  0
 44127  1  0  0  0  0
 45128  1  0  0  0  0
 46 47  1  0  0  0  0
 46129  1  0  0  0  0
 46130  1  0  0  0  0
 47131  1  0  0  0  0
 47132  1  0  0  0  0
 47133  1  0  0  0  0
 48 49  2  0  0  0  0
 48 50  1  0  0  0  0
 50 51  1  0  0  0  0
 50 54  1  0  0  0  0
 51 52  1  0  0  0  0
 51 55  1  0  0  0  0
 51134  1  1  0  0  0
 52 53  1  0  0  0  0
 52135  1  0  0  0  0
 52136  1  0  0  0  0
 53 54  1  0  0  0  0
 53137  1  0  0  0  0
 53138  1  0  0  0  0
 54139  1  0  0  0  0
 54140  1  0  0  0  0
 55 56  2  0  0  0  0
 55 57  1  0  0  0  0
 57 58  1  0  0  0  0
 57141  1  0  0  0  0
 58 59  1  0  0  0  0
 58 66  1  0  0  0  0
 58142  1  6  0  0  0
 59 60  1  0  0  0  0
 59143  1  0  0  0  0
 59144  1  0  0  0  0
 60 61  1  0  0  0  0
 60 65  2  0  0  0  0
 61 62  2  0  0  0  0
 61145  1  0  0  0  0
 62 63  1  0  0  0  0
 62146  1  0  0  0  0
 63 64  2  0  0  0  0
 63147  1  0  0  0  0
 64 65  1  0  0  0  0
 64148  1  0  0  0  0
 65149  1  0  0  0  0
 66 67  2  0  0  0  0
 66 68  1  0  0  0  0
 68 69  1  0  0  0  0
 68150  1  0  0  0  0
 69 70  1  0  0  0  0
 69151  1  0  0  0  0
 69152  1  0  0  0  0
 70 71  1  0  0  0  0
 70153  1  0  0  0  0
 70154  1  0  0  0  0
 71 72  1  0  0  0  0
 71155  1  0  0  0  0
 71156  1  0  0  0  0
 72157  1  0  0  0  0
 72158  1  0  0  0  0
 73 74  2  0  0  0  0
 73 75  1  0  0  0  0
 75 76  1  0  0  0  0
 75 80  2  0  0  0  0
 76 77  1  0  0  0  0
 76 86  2  0  0  0  0
 77 78  1  0  0  0  0
 77 83  2  0  0  0  0
 78 79  2  0  0  0  0
 79 80  1  0  0  0  0
 79 81  1  0  0  0  0
 80159  1  0  0  0  0
 81 82  1  0  0  0  0
 81160  1  0  0  0  0
 81161  1  0  0  0  0
 82162  1  0  0  0  0
 82163  1  0  0  0  0
 82164  1  0  0  0  0
 83 84  1  0  0  0  0
 83165  1  0  0  0  0
 84 85  2  0  0  0  0
 84166  1  0  0  0  0
 85 86  1  0  0  0  0
 85167  1  0  0  0  0
 86168  1  0  0  0  0
M  END
$$$$
Target_lig_24
 OpenBabel04172516573D

 43 45  0  0  0  0  0  0  0  0999 V2000
    1.5271   -2.5374    1.2893 C   0  0  0  0  0  0  0  0  0  0  0  0
    1.8480   -1.4641    2.2338 N   0  0  0  0  0  0  0  0  0  0  0  0
    0.6123   -0.8378    2.7099 C   0  0  0  0  0  0  0  0  0  0  0  0
    2.6253   -1.9674    3.3838 C   0  0  0  0  0  0  0  0  0  0  0  0
    4.0127   -2.5604    3.0507 C   0  0  0  0  0  0  0  0  0  0  0  0
    4.8799   -1.5880    2.3727 N   0  0  0  0  0  0  0  0  0  0  0  0
    6.2732   -1.7583    2.4959 C   0  0  0  0  0  0  0  0  0  0  0  0
    6.8059   -3.0461    2.6066 C   0  0  0  0  0  0  0  0  0  0  0  0
    8.1701   -3.2404    2.7687 C   0  0  0  0  0  0  0  0  0  0  0  0
    9.0387   -2.2076    2.7206 N   0  0  0  0  0  0  0  0  0  0  0  0
    8.5618   -0.9672    2.5365 C   0  0  0  0  0  0  0  0  0  0  0  0
    9.4846    0.0689    2.4751 C   0  0  0  0  0  0  0  0  0  0  0  0
    9.0974    1.3992    2.3077 C   0  0  0  0  0  0  0  0  0  0  0  0
    7.7513    1.7097    2.1967 C   0  0  0  0  0  0  0  0  0  0  0  0
    6.8028    0.6852    2.2484 C   0  0  0  0  0  0  0  0  0  0  0  0
    7.1828   -0.6711    2.4195 C   0  0  0  0  0  0  0  0  0  0  0  0
    8.7429   -4.5713    3.0553 C   0  0  0  0  0  0  0  0  0  0  0  0
   10.0338   -4.9161    2.6217 C   0  0  0  0  0  0  0  0  0  0  0  0
   10.5894   -6.1646    2.9182 C   0  0  0  0  0  0  0  0  0  0  0  0
    9.8654   -7.0966    3.6577 C   0  0  0  0  0  0  0  0  0  0  0  0
    8.5849   -6.7829    4.0994 C   0  0  0  0  0  0  0  0  0  0  0  0
    8.0322   -5.5340    3.8028 C   0  0  0  0  0  0  0  0  0  0  0  0
    0.9264   -2.1521    0.4578 H   0  0  0  0  0  0  0  0  0  0  0  0
    0.9691   -3.3519    1.7660 H   0  0  0  0  0  0  0  0  0  0  0  0
    2.4319   -2.9548    0.8367 H   0  0  0  0  0  0  0  0  0  0  0  0
    0.0156   -0.4666    1.8695 H   0  0  0  0  0  0  0  0  0  0  0  0
    0.8417    0.0294    3.3389 H   0  0  0  0  0  0  0  0  0  0  0  0
   -0.0057   -1.5327    3.2906 H   0  0  0  0  0  0  0  0  0  0  0  0
    2.0505   -2.7260    3.9314 H   0  0  0  0  0  0  0  0  0  0  0  0
    2.7924   -1.1337    4.0790 H   0  0  0  0  0  0  0  0  0  0  0  0
    3.9042   -3.4548    2.4283 H   0  0  0  0  0  0  0  0  0  0  0  0
    4.4597   -2.8731    4.0037 H   0  0  0  0  0  0  0  0  0  0  0  0
    4.5507   -0.6350    2.4902 H   0  0  0  0  0  0  0  0  0  0  0  0
    6.1537   -3.9113    2.5711 H   0  0  0  0  0  0  0  0  0  0  0  0
   10.5430   -0.1689    2.5636 H   0  0  0  0  0  0  0  0  0  0  0  0
    9.8494    2.1830    2.2661 H   0  0  0  0  0  0  0  0  0  0  0  0
    7.4360    2.7414    2.0697 H   0  0  0  0  0  0  0  0  0  0  0  0
    5.7575    0.9633    2.1490 H   0  0  0  0  0  0  0  0  0  0  0  0
   10.6191   -4.1987    2.0485 H   0  0  0  0  0  0  0  0  0  0  0  0
   11.5921   -6.4030    2.5756 H   0  0  0  0  0  0  0  0  0  0  0  0
   10.3023   -8.0614    3.8970 H   0  0  0  0  0  0  0  0  0  0  0  0
    8.0165   -7.5013    4.6850 H   0  0  0  0  0  0  0  0  0  0  0  0
    7.0404   -5.3120    4.1883 H   0  0  0  0  0  0  0  0  0  0  0  0
  1  2  1  0  0  0  0
  1 23  1  0  0  0  0
  1 24  1  0  0  0  0
  1 25  1  0  0  0  0
  2  3  1  0  0  0  0
  2  4  1  0  0  0  0
  3 26  1  0  0  0  0
  3 27  1  0  0  0  0
  3 28  1  0  0  0  0
  4  5  1  0  0  0  0
  4 29  1  0  0  0  0
  4 30  1  0  0  0  0
  5  6  1  0  0  0  0
  5 31  1  0  0  0  0
  5 32  1  0  0  0  0
  6  7  1  0  0  0  0
  6 33  1  0  0  0  0
  7  8  2  0  0  0  0
  7 16  1  0  0  0  0
  8  9  1  0  0  0  0
  8 34  1  0  0  0  0
  9 10  2  0  0  0  0
  9 17  1  0  0  0  0
 10 11  1  0  0  0  0
 11 12  2  0  0  0  0
 11 16  1  0  0  0  0
 12 13  1  0  0  0  0
 12 35  1  0  0  0  0
 13 14  2  0  0  0  0
 13 36  1  0  0  0  0
 14 15  1  0  0  0  0
 14 37  1  0  0  0  0
 15 16  2  0  0  0  0
 15 38  1  0  0  0  0
 17 18  2  0  0  0  0
 17 22  1  0  0  0  0
 18 19  1  0  0  0  0
 18 39  1  0  0  0  0
 19 20  2  0  0  0  0
 19 40  1  0  0  0  0
 20 21  1  0  0  0  0
 20 41  1  0  0  0  0
 21 22  2  0  0  0  0
 21 42  1  0  0  0  0
 22 43  1  0  0  0  0
M  END
$$$$
Target_lig_574
 OpenBabel04172516573D

114120  0  0  0  0  0  0  0  0999 V2000
    3.8467    3.7190   -0.3741 C   0  0  0  0  0  0  0  0  0  0  0  0
    5.0957    0.3770   -1.3046 C   0  0  0  0  0  0  0  0  0  0  0  0
    4.8374    0.2478   -1.1296 N   0  0  0  0  0  0  0  0  0  0  0  0
    5.1212    1.3151   -0.3821 C   0  0  0  0  0  0  0  0  0  0  0  0
    4.4839    2.5170   -0.3781 C   0  0  0  0  0  0  0  0  0  0  0  0
    6.3480    1.3140    0.6320 C   0  0  0  0  0  0  0  0  0  0  0  0
    6.1866    0.8478    1.9457 C   0  0  0  0  0  0  0  0  0  0  0  0
    7.1416    1.2346    2.8903 C   0  0  0  0  0  0  0  0  0  0  0  0
    8.2321    2.0838    2.5799 C   0  0  0  0  0  0  0  0  0  0  0  0
    8.3620    2.5446    1.3033 C   0  0  0  0  0  0  0  0  0  0  0  0
    7.4917    2.1345    0.3057 C   0  0  0  0  0  0  0  0  0  0  0  0
    7.6651    2.8268   -1.0239 C   0  0  0  0  0  0  0  0  0  0  0  0
    9.1527    2.6105    3.6265 C   0  0  0  0  0  0  0  0  0  0  0  0
    4.9929    0.0843    2.3568 C   0  0  0  0  0  0  0  0  0  0  0  0
    3.3917    0.8031   -2.9911 Ru  0  0  0  0  0  0  0  0  0  0  0  0
    4.7802    1.4866   -3.9840 C   0  0  0  0  0  0  0  0  0  0  0  0
    5.6179    2.7188   -3.6638 C   0  0  0  0  0  0  0  0  0  0  0  0
    5.4452    3.5122   -2.6866 C   0  0  0  0  0  0  0  0  0  0  0  0
    6.0223    4.7802   -2.5666 C   0  0  0  0  0  0  0  0  0  0  0  0
    6.8137    5.2462   -3.5567 C   0  0  0  0  0  0  0  0  0  0  0  0
    7.0467    4.4822   -4.5842 C   0  0  0  0  0  0  0  0  0  0  0  0
    6.3746    3.3679   -4.5923 C   0  0  0  0  0  0  0  0  0  0  0  0
    2.9535   -1.6763   -2.5839 Cl  0  0  0  0  0  0  0  0  0  0  0  0
    2.2659    2.5074   -1.6647 Cl  0  0  0  0  0  0  0  0  0  0  0  0
    2.1267    1.4257   -5.0918 P   0  0  0  0  0  0  0  0  0  0  0  0
    2.9373    0.3290   -6.2766 C   0  0  0  0  0  0  0  0  0  0  0  0
    1.5951   -0.8581   -6.7091 C   0  0  0  0  0  0  0  0  0  0  0  0
    1.9365   -1.9786   -7.5275 C   0  0  0  0  0  0  0  0  0  0  0  0
    3.0675   -2.7325   -6.9586 C   0  0  0  0  0  0  0  0  0  0  0  0
    4.2195   -1.8096   -6.8381 C   0  0  0  0  0  0  0  0  0  0  0  0
    3.9477   -0.4602   -5.9279 C   0  0  0  0  0  0  0  0  0  0  0  0
    0.8813    1.7932   -3.8804 C   0  0  0  0  0  0  0  0  0  0  0  0
    0.3506    2.8472   -3.4160 C   0  0  0  0  0  0  0  0  0  0  0  0
   -0.6856    2.6565   -2.3301 C   0  0  0  0  0  0  0  0  0  0  0  0
   -0.2713    1.8668   -1.1039 C   0  0  0  0  0  0  0  0  0  0  0  0
    0.1803    0.4820   -1.4940 C   0  0  0  0  0  0  0  0  0  0  0  0
    1.0851    0.5394   -2.7053 C   0  0  0  0  0  0  0  0  0  0  0  0
    1.2117    1.8760   -6.6113 C   0  0  0  0  0  0  0  0  0  0  0  0
    1.3133    3.3748   -6.8421 C   0  0  0  0  0  0  0  0  0  0  0  0
    0.5162    3.8047   -8.0632 C   0  0  0  0  0  0  0  0  0  0  0  0
   -0.9408    3.4053   -7.9480 C   0  0  0  0  0  0  0  0  0  0  0  0
   -1.0671    1.9306   -7.7528 C   0  0  0  0  0  0  0  0  0  0  0  0
   -0.2880    1.5253   -6.5830 C   0  0  0  0  0  0  0  0  0  0  0  0
    6.4690   -1.2549   -0.6225 C   0  0  0  0  0  0  0  0  0  0  0  0
    6.4030   -2.5985    0.4027 C   0  0  0  0  0  0  0  0  0  0  0  0
    7.2095   -3.7675    0.1338 C   0  0  0  0  0  0  0  0  0  0  0  0
    8.2210   -3.7277   -0.7931 C   0  0  0  0  0  0  0  0  0  0  0  0
    8.3937   -2.5573   -1.5163 C   0  0  0  0  0  0  0  0  0  0  0  0
    7.5434   -1.4384   -1.4087 C   0  0  0  0  0  0  0  0  0  0  0  0
    7.7858   -0.3419   -2.3289 C   0  0  0  0  0  0  0  0  0  0  0  0
    9.1066   -4.9028   -0.9431 C   0  0  0  0  0  0  0  0  0  0  0  0
    5.2268   -2.8780    1.3688 C   0  0  0  0  0  0  0  0  0  0  0  0
    6.9410    1.0390    3.9162 H   0  0  0  0  0  0  0  0  0  0  0  0
    9.1191    3.2435    1.0820 H   0  0  0  0  0  0  0  0  0  0  0  0
    8.5690    3.3960   -1.0547 H   0  0  0  0  0  0  0  0  0  0  0  0
    6.9606    3.5227   -1.2101 H   0  0  0  0  0  0  0  0  0  0  0  0
    7.6178    2.1501   -1.7918 H   0  0  0  0  0  0  0  0  0  0  0  0
    8.9889    1.9861    4.4872 H   0  0  0  0  0  0  0  0  0  0  0  0
    9.1257    3.7290    3.7782 H   0  0  0  0  0  0  0  0  0  0  0  0
   10.1385    2.3121    3.4356 H   0  0  0  0  0  0  0  0  0  0  0  0
    4.2072   -0.0101    1.6651 H   0  0  0  0  0  0  0  0  0  0  0  0
    4.4428    0.3694    3.0553 H   0  0  0  0  0  0  0  0  0  0  0  0
    5.2602   -0.7126    2.8897 H   0  0  0  0  0  0  0  0  0  0  0  0
    5.5525    0.6706   -4.1617 H   0  0  0  0  0  0  0  0  0  0  0  0
    4.9181    3.1886   -2.1430 H   0  0  0  0  0  0  0  0  0  0  0  0
    5.9577    5.2717   -1.6583 H   0  0  0  0  0  0  0  0  0  0  0  0
    7.2024    6.2042   -3.5443 H   0  0  0  0  0  0  0  0  0  0  0  0
    7.7089    4.7427   -5.3602 H   0  0  0  0  0  0  0  0  0  0  0  0
    6.1700    3.2694   -5.4353 H   0  0  0  0  0  0  0  0  0  0  0  0
    1.8762    0.2730   -5.0385 H   0  0  0  0  0  0  0  0  0  0  0  0
    3.1010    0.5480   -7.2072 H   0  0  0  0  0  0  0  0  0  0  0  0
    0.8497   -0.4213   -7.2175 H   0  0  0  0  0  0  0  0  0  0  0  0
    0.8257   -1.1017   -5.9101 H   0  0  0  0  0  0  0  0  0  0  0  0
    2.2418   -1.5289   -8.4610 H   0  0  0  0  0  0  0  0  0  0  0  0
    1.0822   -2.6166   -7.6268 H   0  0  0  0  0  0  0  0  0  0  0  0
    3.3981   -3.5059   -7.6068 H   0  0  0  0  0  0  0  0  0  0  0  0
    2.8732   -3.2958   -6.0432 H   0  0  0  0  0  0  0  0  0  0  0  0
    4.6434   -1.3672   -7.6433 H   0  0  0  0  0  0  0  0  0  0  0  0
    5.1337   -2.6362   -6.6041 H   0  0  0  0  0  0  0  0  0  0  0  0
    4.7159    0.0682   -5.6649 H   0  0  0  0  0  0  0  0  0  0  0  0
    3.8891   -0.4345   -4.9273 H   0  0  0  0  0  0  0  0  0  0  0  0
    0.0833    0.9916   -3.9702 H   0  0  0  0  0  0  0  0  0  0  0  0
    0.0081    3.2470   -4.2717 H   0  0  0  0  0  0  0  0  0  0  0  0
    1.1642    3.3411   -3.1706 H   0  0  0  0  0  0  0  0  0  0  0  0
   -1.5608    2.1678   -2.7470 H   0  0  0  0  0  0  0  0  0  0  0  0
   -0.9069    3.6726   -2.0353 H   0  0  0  0  0  0  0  0  0  0  0  0
   -1.0460    1.8309   -0.3801 H   0  0  0  0  0  0  0  0  0  0  0  0
    0.4455    2.4092   -0.5474 H   0  0  0  0  0  0  0  0  0  0  0  0
   -0.6725   -0.0619   -1.8602 H   0  0  0  0  0  0  0  0  0  0  0  0
    0.6002   -0.0267   -0.6057 H   0  0  0  0  0  0  0  0  0  0  0  0
    1.2669   -0.4221   -2.9042 H   0  0  0  0  0  0  0  0  0  0  0  0
    1.9013    0.5020   -2.2474 H   0  0  0  0  0  0  0  0  0  0  0  0
    1.5533    1.4284   -7.5031 H   0  0  0  0  0  0  0  0  0  0  0  0
    2.3594    3.6511   -6.9854 H   0  0  0  0  0  0  0  0  0  0  0  0
    0.9143    3.8984   -5.9764 H   0  0  0  0  0  0  0  0  0  0  0  0
    0.9438    3.3309   -8.9493 H   0  0  0  0  0  0  0  0  0  0  0  0
    0.5719    4.8890   -8.1552 H   0  0  0  0  0  0  0  0  0  0  0  0
   -1.4737    3.6782   -8.8586 H   0  0  0  0  0  0  0  0  0  0  0  0
   -1.3920    3.9259   -7.0993 H   0  0  0  0  0  0  0  0  0  0  0  0
   -0.6844    1.3875   -8.6110 H   0  0  0  0  0  0  0  0  0  0  0  0
   -2.1097    1.6581   -7.5637 H   0  0  0  0  0  0  0  0  0  0  0  0
   -0.5075    0.4759   -6.5627 H   0  0  0  0  0  0  0  0  0  0  0  0
   -0.7249    1.9846   -5.6914 H   0  0  0  0  0  0  0  0  0  0  0  0
    7.0146   -4.6730    0.6589 H   0  0  0  0  0  0  0  0  0  0  0  0
    9.0816   -2.5780   -2.3348 H   0  0  0  0  0  0  0  0  0  0  0  0
    8.4992   -0.5902   -3.0859 H   0  0  0  0  0  0  0  0  0  0  0  0
    7.9730    0.4294   -1.8011 H   0  0  0  0  0  0  0  0  0  0  0  0
    7.0607    0.1421   -2.8677 H   0  0  0  0  0  0  0  0  0  0  0  0
    8.8236   -5.7248   -0.3225 H   0  0  0  0  0  0  0  0  0  0  0  0
   10.1074   -4.5787   -0.8047 H   0  0  0  0  0  0  0  0  0  0  0  0
    9.2792   -5.3768   -1.7848 H   0  0  0  0  0  0  0  0  0  0  0  0
    4.5361   -2.0229    1.3531 H   0  0  0  0  0  0  0  0  0  0  0  0
    5.6440   -3.0503    2.3105 H   0  0  0  0  0  0  0  0  0  0  0  0
    4.5583   -3.7506    1.0859 H   0  0  0  0  0  0  0  0  0  0  0  0
  1  2  2  0  0  0  0
  1  5  2  0  0  0  0
  2  3  1  0  0  0  0
  2 44  1  0  0  0  0
  3  4  1  0  0  0  0
  3 15  1  0  0  0  0
  4  5  2  0  0  0  0
  4  6  1  0  0  0  0
  6  7  1  0  0  0  0
  6 11  2  0  0  0  0
  7  8  2  0  0  0  0
  7 14  1  0  0  0  0
  8  9  1  0  0  0  0
  8 53  1  0  0  0  0
  9 10  2  0  0  0  0
  9 13  1  0  0  0  0
 10 11  1  0  0  0  0
 10 54  1  0  0  0  0
 11 12  1  0  0  0  0
 12 55  1  0  0  0  0
 12 56  1  0  0  0  0
 12 57  1  0  0  0  0
 13 58  1  0  0  0  0
 13 59  1  0  0  0  0
 13 60  1  0  0  0  0
 14 61  1  0  0  0  0
 14 62  1  0  0  0  0
 14 63  1  0  0  0  0
 15 16  2  0  0  0  0
 15 23  1  0  0  0  0
 15 24  1  0  0  0  0
 15 25  1  0  0  0  0
 16 17  1  0  0  0  0
 16 64  1  0  0  0  0
 17 18  1  0  0  0  0
 17 22  2  0  0  0  0
 18 19  2  0  0  0  0
 18 65  1  0  0  0  0
 19 20  1  0  0  0  0
 19 66  1  0  0  0  0
 20 21  2  0  0  0  0
 20 67  1  0  0  0  0
 21 22  1  0  0  0  0
 21 68  1  0  0  0  0
 22 69  1  0  0  0  0
 25 26  1  0  0  0  0
 25 32  1  0  0  0  0
 25 38  1  0  0  0  0
 25 70  1  0  0  0  0
 26 27  1  0  0  0  0
 26 31  1  0  0  0  0
 26 71  1  0  0  0  0
 27 28  1  0  0  0  0
 27 72  1  0  0  0  0
 27 73  1  0  0  0  0
 28 29  1  0  0  0  0
 28 74  1  0  0  0  0
 28 75  1  0  0  0  0
 29 30  1  0  0  0  0
 29 76  1  0  0  0  0
 29 77  1  0  0  0  0
 30 31  1  0  0  0  0
 30 78  1  0  0  0  0
 30 79  1  0  0  0  0
 31 80  1  0  0  0  0
 31 81  1  0  0  0  0
 32 33  1  0  0  0  0
 32 37  1  0  0  0  0
 32 82  1  0  0  0  0
 33 34  1  0  0  0  0
 33 83  1  0  0  0  0
 33 84  1  0  0  0  0
 34 35  1  0  0  0  0
 34 85  1  0  0  0  0
 34 86  1  0  0  0  0
 35 36  1  0  0  0  0
 35 87  1  0  0  0  0
 35 88  1  0  0  0  0
 36 37  1  0  0  0  0
 36 89  1  0  0  0  0
 36 90  1  0  0  0  0
 37 91  1  0  0  0  0
 37 92  1  0  0  0  0
 38 39  1  0  0  0  0
 38 43  1  0  0  0  0
 38 93  1  0  0  0  0
 39 40  1  0  0  0  0
 39 94  1  0  0  0  0
 39 95  1  0  0  0  0
 40 41  1  0  0  0  0
 40 96  1  0  0  0  0
 40 97  1  0  0  0  0
 41 42  1  0  0  0  0
 41 98  1  0  0  0  0
 41 99  1  0  0  0  0
 42 43  1  0  0  0  0
 42100  1  0  0  0  0
 42101  1  0  0  0  0
 43102  1  0  0  0  0
 43103  1  0  0  0  0
 44 45  1  0  0  0  0
 44 49  2  0  0  0  0
 45 46  2  0  0  0  0
 45 52  1  0  0  0  0
 46 47  1  0  0  0  0
 46104  1  0  0  0  0
 47 48  2  0  0  0  0
 47 51  1  0  0  0  0
 48 49  1  0  0  0  0
 48105  1  0  0  0  0
 49 50  1  0  0  0  0
 50106  1  0  0  0  0
 50107  1  0  0  0  0
 50108  1  0  0  0  0
 51109  1  0  0  0  0
 51110  1  0  0  0  0
 51111  1  0  0  0  0
 52112  1  0  0  0  0
 52113  1  0  0  0  0
 52114  1  0  0  0  0
M  END
$$$$
Target_lig_575
 OpenBabel04172516573D

 46 49  0  0  0  0  0  0  0  0999 V2000
    2.8522   -0.9411    1.6801 C   0  0  0  0  0  0  0  0  0  0  0  0
    3.2342   -0.4931    0.3569 N   0  0  0  0  0  0  0  0  0  0  0  0
    2.5241   -0.9680   -0.8130 C   0  0  0  0  0  0  0  0  0  0  0  0
    4.2216    0.4746    0.2382 C   0  0  0  0  0  0  0  0  0  0  0  0
    4.8522    0.9193    1.3691 N   0  0  0  0  0  0  0  0  0  0  0  0
    5.8255    1.8489    1.2742 C   0  0  0  0  0  0  0  0  0  0  0  0
    6.3056    2.4466    0.1671 N   0  0  0  0  0  0  0  0  0  0  0  0
    5.6679    1.9965   -0.9247 C   0  0  0  0  0  0  0  0  0  0  0  0
    4.6512    1.0528   -0.9861 C   0  0  0  0  0  0  0  0  0  0  0  0
    4.2532    0.8731   -2.3023 N   0  0  0  0  0  0  0  0  0  0  0  0
    5.0132    1.6791   -3.0111 C   0  0  0  0  0  0  0  0  0  0  0  0
    5.8843    2.3777   -2.2225 N   0  0  0  0  0  0  0  0  0  0  0  0
    6.8825    3.3195   -2.6913 C   0  0  0  0  0  0  0  0  0  0  0  0
    6.6352    4.7388   -2.1936 C   0  0  0  0  0  0  0  0  0  0  0  0
    7.6471    5.6804   -2.6264 N   0  0  0  0  0  0  0  0  0  0  0  0
    8.4903    6.3687   -1.8022 C   0  0  0  0  0  0  0  0  0  0  0  0
    9.2608    7.1910   -2.4749 N   0  0  0  0  0  0  0  0  0  0  0  0
    8.9023    7.0437   -3.8061 C   0  0  0  0  0  0  0  0  0  0  0  0
    7.8918    6.0923   -3.9091 C   0  0  0  0  0  0  0  0  0  0  0  0
    7.2805    5.6582   -5.0218 N   0  0  0  0  0  0  0  0  0  0  0  0
    7.7771    6.2843   -6.1048 C   0  0  0  0  0  0  0  0  0  0  0  0
    8.7438    7.2238   -6.1576 N   0  0  0  0  0  0  0  0  0  0  0  0
    9.3568    7.6567   -5.0088 C   0  0  0  0  0  0  0  0  0  0  0  0
   10.3416    8.6261   -5.1093 N   0  0  0  0  0  0  0  0  0  0  0  0
   11.0434    9.1804   -3.9637 C   0  0  0  0  0  0  0  0  0  0  0  0
   10.7049    9.1730   -6.4070 C   0  0  0  0  0  0  0  0  0  0  0  0
    2.0429   -1.6784    1.6376 H   0  0  0  0  0  0  0  0  0  0  0  0
    2.4942   -0.1062    2.2928 H   0  0  0  0  0  0  0  0  0  0  0  0
    3.6957   -1.4212    2.1885 H   0  0  0  0  0  0  0  0  0  0  0  0
    1.7796   -1.7274   -0.5502 H   0  0  0  0  0  0  0  0  0  0  0  0
    3.2120   -1.4379   -1.5244 H   0  0  0  0  0  0  0  0  0  0  0  0
    1.9858   -0.1520   -1.3071 H   0  0  0  0  0  0  0  0  0  0  0  0
    6.2758    2.1530    2.2153 H   0  0  0  0  0  0  0  0  0  0  0  0
    4.9758    1.7878   -4.0874 H   0  0  0  0  0  0  0  0  0  0  0  0
    6.8720    3.2839   -3.7866 H   0  0  0  0  0  0  0  0  0  0  0  0
    7.8595    2.9433   -2.3662 H   0  0  0  0  0  0  0  0  0  0  0  0
    6.6193    4.7682   -1.0982 H   0  0  0  0  0  0  0  0  0  0  0  0
    5.6663    5.1197   -2.5365 H   0  0  0  0  0  0  0  0  0  0  0  0
    8.4974    6.2419   -0.7264 H   0  0  0  0  0  0  0  0  0  0  0  0
    7.3497    5.9987   -7.0620 H   0  0  0  0  0  0  0  0  0  0  0  0
   10.7561    8.7820   -2.9933 H   0  0  0  0  0  0  0  0  0  0  0  0
   10.8828   10.2636   -3.9183 H   0  0  0  0  0  0  0  0  0  0  0  0
   12.1199    9.0063   -4.0709 H   0  0  0  0  0  0  0  0  0  0  0  0
   10.1592    8.7496   -7.2550 H   0  0  0  0  0  0  0  0  0  0  0  0
   11.7721    9.0048   -6.5929 H   0  0  0  0  0  0  0  0  0  0  0  0
   10.5315   10.2552   -6.4170 H   0  0  0  0  0  0  0  0  0  0  0  0
  1  2  1  0  0  0  0
  1 27  1  0  0  0  0
  1 28  1  0  0  0  0
  1 29  1  0  0  0  0
  2  3  1  0  0  0  0
  2  4  1  0  0  0  0
  3 30  1  0  0  0  0
  3 31  1  0  0  0  0
  3 32  1  0  0  0  0
  4  5  2  0  0  0  0
  4  9  1  0  0  0  0
  5  6  1  0  0  0  0
  6  7  2  0  0  0  0
  6 33  1  0  0  0  0
  7  8  1  0  0  0  0
  8  9  2  0  0  0  0
  8 12  1  0  0  0  0
  9 10  1  0  0  0  0
 10 11  2  0  0  0  0
 11 12  1  0  0  0  0
 11 34  1  0  0  0  0
 12 13  1  0  0  0  0
 13 14  1  0  0  0  0
 13 35  1  0  0  0  0
 13 36  1  0  0  0  0
 14 15  1  0  0  0  0
 14 37  1  0  0  0  0
 14 38  1  0  0  0  0
 15 16  1  0  0  0  0
 15 19  1  0  0  0  0
 16 17  2  0  0  0  0
 16 39  1  0  0  0  0
 17 18  1  0  0  0  0
 18 19  2  0  0  0  0
 18 23  1  0  0  0  0
 19 20  1  0  0  0  0
 20 21  2  0  0  0  0
 21 22  1  0  0  0  0
 21 40  1  0  0  0  0
 22 23  2  0  0  0  0
 23 24  1  0  0  0  0
 24 25  1  0  0  0  0
 24 26  1  0  0  0  0
 25 41  1  0  0  0  0
 25 42  1  0  0  0  0
 25 43  1  0  0  0  0
 26 44  1  0  0  0  0
 26 45  1  0  0  0  0
 26 46  1  0  0  0  0
M  END
$$$$
Target_lig_576
 OpenBabel04172516573D

 46 46  0  0  0  0  0  0  0  0999 V2000
    1.2296    0.1900   -0.3702 C   0  0  0  0  0  0  0  0  0  0  0  0
    2.4967    0.0146    0.3804 N   0  3  0  0  0  0  0  0  0  0  0  0
    3.2331   -1.1364   -0.2127 C   0  0  0  0  0  0  0  0  0  0  0  0
    4.4612   -1.5233    0.6466 C   0  0  0  0  0  0  0  0  0  0  0  0
    5.3077   -0.2938    1.0909 C   0  0  0  0  0  0  0  0  0  0  0  0
    4.6717    1.0750    0.8271 C   0  0  0  0  0  0  0  0  0  0  0  0
    5.4189    2.2452    1.0565 C   0  0  0  0  0  0  0  0  0  0  0  0
    4.8937    3.5034    0.7379 C   0  0  0  0  0  0  0  0  0  0  0  0
    3.6364    3.6057    0.1549 C   0  0  0  0  0  0  0  0  0  0  0  0
    2.8711    2.4728   -0.0466 C   0  0  0  0  0  0  0  0  0  0  0  0
    3.3542    1.1846    0.3253 C   0  0  0  0  0  0  0  0  0  0  0  0
    2.2151   -0.3087    1.7256 N   0  0  0  0  0  0  0  0  0  0  0  0
    1.5779    0.7425    2.5009 C   0  0  0  0  0  0  0  0  0  0  0  0
    0.2570    0.1620    2.9367 C   0  0  0  0  0  0  0  0  0  0  0  0
   -0.4603    0.9805    3.9347 N   0  3  0  0  0  0  0  0  0  0  0  0
    0.2188    0.8958    5.2527 C   0  0  0  0  0  0  0  0  0  0  0  0
   -0.5652    2.3963    3.5022 C   0  0  0  0  0  0  0  0  0  0  0  0
   -1.8113    0.3980    4.0512 C   0  0  0  0  0  0  0  0  0  0  0  0
   -0.6103   -3.2953   -0.5700 I   0  5  0  0  0  0  0  0  0  0  0  0
    1.4074    0.3950   -1.4504 H   0  0  0  0  0  0  0  0  0  0  0  0
    0.6052    1.0160    0.0338 H   0  0  0  0  0  0  0  0  0  0  0  0
    0.5910   -0.7006   -0.2742 H   0  0  0  0  0  0  0  0  0  0  0  0
    3.5427   -0.8901   -1.2541 H   0  0  0  0  0  0  0  0  0  0  0  0
    2.5759   -2.0349   -0.2591 H   0  0  0  0  0  0  0  0  0  0  0  0
    5.0738   -2.3267    0.1897 H   0  0  0  0  0  0  0  0  0  0  0  0
    4.0874   -2.0520    1.5525 H   0  0  0  0  0  0  0  0  0  0  0  0
    6.2413   -0.3271    0.4955 H   0  0  0  0  0  0  0  0  0  0  0  0
    5.5889   -0.3997    2.1633 H   0  0  0  0  0  0  0  0  0  0  0  0
    6.4093    2.1888    1.4847 H   0  0  0  0  0  0  0  0  0  0  0  0
    5.4604    4.4042    0.9305 H   0  0  0  0  0  0  0  0  0  0  0  0
    3.2352    4.5787   -0.1144 H   0  0  0  0  0  0  0  0  0  0  0  0
    1.8882    2.6374   -0.4585 H   0  0  0  0  0  0  0  0  0  0  0  0
    3.0718   -0.4903    2.2878 H   0  0  0  0  0  0  0  0  0  0  0  0
    1.4491    1.6920    1.9524 H   0  0  0  0  0  0  0  0  0  0  0  0
    2.2133    0.9969    3.3802 H   0  0  0  0  0  0  0  0  0  0  0  0
    0.4459   -0.8560    3.3519 H   0  0  0  0  0  0  0  0  0  0  0  0
   -0.3442    0.0290    2.0086 H   0  0  0  0  0  0  0  0  0  0  0  0
    1.2332    1.3462    5.2375 H   0  0  0  0  0  0  0  0  0  0  0  0
    0.3339   -0.1644    5.5761 H   0  0  0  0  0  0  0  0  0  0  0  0
   -0.3556    1.4369    6.0296 H   0  0  0  0  0  0  0  0  0  0  0  0
    0.4268    2.9029    3.5238 H   0  0  0  0  0  0  0  0  0  0  0  0
   -1.2250    2.9737    4.1810 H   0  0  0  0  0  0  0  0  0  0  0  0
   -0.9610    2.4648    2.4631 H   0  0  0  0  0  0  0  0  0  0  0  0
   -1.7523   -0.6718    4.3609 H   0  0  0  0  0  0  0  0  0  0  0  0
   -2.3411    0.4314    3.0696 H   0  0  0  0  0  0  0  0  0  0  0  0
   -2.4218    0.9476    4.7954 H   0  0  0  0  0  0  0  0  0  0  0  0
  1  2  1  0  0  0  0
  1 20  1  0  0  0  0
  1 21  1  0  0  0  0
  1 22  1  0  0  0  0
  2  3  1  0  0  0  0
  2 11  1  0  0  0  0
  2 12  1  0  0  0  0
  3  4  1  0  0  0  0
  3 23  1  0  0  0  0
  3 24  1  0  0  0  0
  4  5  1  0  0  0  0
  4 25  1  0  0  0  0
  4 26  1  0  0  0  0
  5  6  1  0  0  0  0
  5 27  1  0  0  0  0
  5 28  1  0  0  0  0
  6  7  2  0  0  0  0
  6 11  1  0  0  0  0
  7  8  1  0  0  0  0
  7 29  1  0  0  0  0
  8  9  2  0  0  0  0
  8 30  1  0  0  0  0
  9 10  1  0  0  0  0
  9 31  1  0  0  0  0
 10 11  2  0  0  0  0
 10 32  1  0  0  0  0
 12 13  1  0  0  0  0
 12 33  1  0  0  0  0
 13 14  1  0  0  0  0
 13 34  1  0  0  0  0
 13 35  1  0  0  0  0
 14 15  1  0  0  0  0
 14 36  1  0  0  0  0
 14 37  1  0  0  0  0
 15 16  1  0  0  0  0
 15 17  1  0  0  0  0
 15 18  1  0  0  0  0
 16 38  1  0  0  0  0
 16 39  1  0  0  0  0
 16 40  1  0  0  0  0
 17 41  1  0  0  0  0
 17 42  1  0  0  0  0
 17 43  1  0  0  0  0
 18 44  1  0  0  0  0
 18 45  1  0  0  0  0
 18 46  1  0  0  0  0
M  CHG  3   2   1  15   1  19  -1
M  END
$$$$
Target_lig_577
 OpenBabel04172516573D

 43 46  0  0  0  0  0  0  0  0999 V2000
    3.2556    0.6647   -0.0506 C   0  0  0  0  0  0  0  0  0  0  0  0
    1.8192    0.2078   -0.0861 C   0  0  0  0  0  0  0  0  0  0  0  0
    0.8836    1.1049   -0.0939 N   0  0  0  0  0  0  0  0  0  0  0  0
   -0.3997    0.6420   -0.0910 C   0  0  0  0  0  0  0  0  0  0  0  0
   -1.5135    1.3357   -0.1005 N   0  0  0  0  0  0  0  0  0  0  0  0
   -2.5014    0.3867   -0.0721 C   0  0  0  0  0  0  0  0  0  0  0  0
   -2.0597   -0.8762   -0.0512 N   0  0  0  0  0  0  0  0  0  0  0  0
   -0.7035   -0.7273   -0.0610 N   0  0  0  0  0  0  0  0  0  0  0  0
    0.3259   -1.7100   -0.0640 C   0  0  0  0  0  0  0  0  0  0  0  0
    1.5984   -1.2692   -0.0951 C   0  0  0  0  0  0  0  0  0  0  0  0
    0.0384   -3.0904    0.0067 N   0  0  0  0  0  0  0  0  0  0  0  0
   -1.1998   -3.5922    0.6512 C   0  0  0  0  0  0  0  0  0  0  0  0
   -0.9739   -5.0148    1.2044 C   0  0  0  0  0  0  0  0  0  0  0  0
   -0.5653   -5.9602    0.1448 N   0  0  0  0  0  0  0  0  0  0  0  0
    0.6700   -5.4602   -0.4956 C   0  0  0  0  0  0  0  0  0  0  0  0
    0.5170   -4.0220   -1.0479 C   0  0  0  0  0  0  0  0  0  0  0  0
   -0.3737   -7.2982    0.6957 C   0  0  0  0  0  0  0  0  0  0  0  0
   -3.9152    0.7546   -0.0633 C   0  0  0  0  0  0  0  0  0  0  0  0
   -4.2893    2.1058   -0.1430 C   0  0  0  0  0  0  0  0  0  0  0  0
   -5.6370    2.4759   -0.1407 C   0  0  0  0  0  0  0  0  0  0  0  0
   -6.6225    1.4966   -0.0536 C   0  0  0  0  0  0  0  0  0  0  0  0
   -6.2716    0.1498    0.0318 C   0  0  0  0  0  0  0  0  0  0  0  0
   -4.9219   -0.2178    0.0261 C   0  0  0  0  0  0  0  0  0  0  0  0
   -8.2816    1.9505   -0.0537 Cl  0  0  0  0  0  0  0  0  0  0  0  0
    3.3093    1.7557   -0.0157 H   0  0  0  0  0  0  0  0  0  0  0  0
    3.7751    0.3087   -0.9435 H   0  0  0  0  0  0  0  0  0  0  0  0
    3.7424    0.2586    0.8401 H   0  0  0  0  0  0  0  0  0  0  0  0
    2.4553   -1.9265   -0.0668 H   0  0  0  0  0  0  0  0  0  0  0  0
   -2.0244   -3.5987   -0.0724 H   0  0  0  0  0  0  0  0  0  0  0  0
   -1.4770   -2.9505    1.4953 H   0  0  0  0  0  0  0  0  0  0  0  0
   -1.9063   -5.3557    1.6690 H   0  0  0  0  0  0  0  0  0  0  0  0
   -0.2080   -4.9735    1.9918 H   0  0  0  0  0  0  0  0  0  0  0  0
    0.9435   -6.1202   -1.3275 H   0  0  0  0  0  0  0  0  0  0  0  0
    1.5016   -5.4745    0.2213 H   0  0  0  0  0  0  0  0  0  0  0  0
   -0.1976   -4.0157   -1.8811 H   0  0  0  0  0  0  0  0  0  0  0  0
    1.4842   -3.6992   -1.4474 H   0  0  0  0  0  0  0  0  0  0  0  0
   -1.3047   -7.6597    1.1464 H   0  0  0  0  0  0  0  0  0  0  0  0
    0.4117   -7.3275    1.4589 H   0  0  0  0  0  0  0  0  0  0  0  0
   -0.1135   -8.0059   -0.0985 H   0  0  0  0  0  0  0  0  0  0  0  0
   -3.5266    2.8805   -0.2104 H   0  0  0  0  0  0  0  0  0  0  0  0
   -5.9053    3.5268   -0.2068 H   0  0  0  0  0  0  0  0  0  0  0  0
   -7.0396   -0.6151    0.1024 H   0  0  0  0  0  0  0  0  0  0  0  0
   -4.6616   -1.2738    0.0910 H   0  0  0  0  0  0  0  0  0  0  0  0
  1  2  1  0  0  0  0
  1 25  1  0  0  0  0
  1 26  1  0  0  0  0
  1 27  1  0  0  0  0
  2  3  2  0  0  0  0
  2 10  1  0  0  0  0
  3  4  1  0  0  0  0
  4  5  2  0  0  0  0
  4  8  1  0  0  0  0
  5  6  1  0  0  0  0
  6  7  2  0  0  0  0
  6 18  1  0  0  0  0
  7  8  1  0  0  0  0
  8  9  1  0  0  0  0
  9 10  2  0  0  0  0
  9 11  1  0  0  0  0
 10 28  1  0  0  0  0
 11 12  1  0  0  0  0
 11 16  1  0  0  0  0
 12 13  1  0  0  0  0
 12 29  1  0  0  0  0
 12 30  1  0  0  0  0
 13 14  1  0  0  0  0
 13 31  1  0  0  0  0
 13 32  1  0  0  0  0
 14 15  1  0  0  0  0
 14 17  1  0  0  0  0
 15 16  1  0  0  0  0
 15 33  1  0  0  0  0
 15 34  1  0  0  0  0
 16 35  1  0  0  0  0
 16 36  1  0  0  0  0
 17 37  1  0  0  0  0
 17 38  1  0  0  0  0
 17 39  1  0  0  0  0
 18 19  2  0  0  0  0
 18 23  1  0  0  0  0
 19 20  1  0  0  0  0
 19 40  1  0  0  0  0
 20 21  2  0  0  0  0
 20 41  1  0  0  0  0
 21 22  1  0  0  0  0
 21 24  1  0  0  0  0
 22 23  2  0  0  0  0
 22 42  1  0  0  0  0
 23 43  1  0  0  0  0
M  END
$$$$
Target_lig_578
 OpenBabel04172516573D

 39 40  0  0  0  0  0  0  0  0999 V2000
   -3.2219   -1.2159    0.0246 C   0  0  0  0  0  0  0  0  0  0  0  0
   -2.2499   -0.1512    0.0088 N   0  0  0  0  0  0  0  0  0  0  0  0
   -0.8858   -0.2653    0.0181 C   0  0  0  0  0  0  0  0  0  0  0  0
   -0.4264    1.0203    0.0055 C   0  0  0  0  0  0  0  0  0  0  0  0
   -1.4374    1.9238   -0.0457 N   0  0  0  0  0  0  0  0  0  0  0  0
   -2.5329    1.1935   -0.0741 C   0  0  0  0  0  0  0  0  0  0  0  0
   -3.7642    1.6667   -0.2377 O   0  0  0  0  0  0  0  0  0  0  0  0
   -3.8143    3.0195   -0.7288 C   0  0  0  0  0  0  0  0  0  0  0  0
   -3.4406    3.0707   -2.2265 C   0  0  0  0  0  0  0  0  0  0  0  0
   -3.5578    4.3971   -2.8639 N   0  0  0  0  0  0  0  0  0  0  0  0
   -2.6674    5.3786   -2.2408 C   0  0  0  0  0  0  0  0  0  0  0  0
   -3.2347    4.2848   -4.2918 C   0  0  0  0  0  0  0  0  0  0  0  0
    0.9148    1.3117    0.0160 N   0  0  0  0  0  0  0  0  0  0  0  0
    1.8453    0.2699    0.0228 C   0  0  0  0  0  0  0  0  0  0  0  0
    3.0534    0.4986    0.0202 O   0  0  0  0  0  0  0  0  0  0  0  0
    1.3361   -1.0418    0.0242 N   0  0  0  0  0  0  0  0  0  0  0  0
   -0.0178   -1.3897    0.0283 C   0  0  0  0  0  0  0  0  0  0  0  0
   -0.4128   -2.5532    0.0292 O   0  0  0  0  0  0  0  0  0  0  0  0
    2.2729   -2.1459    0.0283 C   0  0  0  0  0  0  0  0  0  0  0  0
    1.4022    2.6773    0.0112 C   0  0  0  0  0  0  0  0  0  0  0  0
   -2.7293   -2.1867   -0.0088 H   0  0  0  0  0  0  0  0  0  0  0  0
   -3.8678   -1.1172   -0.8506 H   0  0  0  0  0  0  0  0  0  0  0  0
   -3.8011   -1.1406    0.9470 H   0  0  0  0  0  0  0  0  0  0  0  0
   -3.1833    3.6724   -0.1130 H   0  0  0  0  0  0  0  0  0  0  0  0
   -4.8448    3.3705   -0.6020 H   0  0  0  0  0  0  0  0  0  0  0  0
   -4.1107    2.3687   -2.7416 H   0  0  0  0  0  0  0  0  0  0  0  0
   -2.4304    2.6681   -2.3755 H   0  0  0  0  0  0  0  0  0  0  0  0
   -2.9718    5.5875   -1.2103 H   0  0  0  0  0  0  0  0  0  0  0  0
   -2.7244    6.3378   -2.7677 H   0  0  0  0  0  0  0  0  0  0  0  0
   -1.6217    5.0498   -2.2383 H   0  0  0  0  0  0  0  0  0  0  0  0
   -3.9214    3.5909   -4.7902 H   0  0  0  0  0  0  0  0  0  0  0  0
   -2.2094    3.9344   -4.4580 H   0  0  0  0  0  0  0  0  0  0  0  0
   -3.3517    5.2525   -4.7893 H   0  0  0  0  0  0  0  0  0  0  0  0
    3.3159   -1.8224    0.0300 H   0  0  0  0  0  0  0  0  0  0  0  0
    2.0943   -2.7648   -0.8589 H   0  0  0  0  0  0  0  0  0  0  0  0
    2.0897   -2.7624    0.9161 H   0  0  0  0  0  0  0  0  0  0  0  0
    0.5867    3.4036    0.0387 H   0  0  0  0  0  0  0  0  0  0  0  0
    1.9980    2.8363   -0.8936 H   0  0  0  0  0  0  0  0  0  0  0  0
    2.0461    2.8276    0.8826 H   0  0  0  0  0  0  0  0  0  0  0  0
  1  2  1  0  0  0  0
  1 21  1  0  0  0  0
  1 22  1  0  0  0  0
  1 23  1  0  0  0  0
  2  3  1  0  0  0  0
  2  6  1  0  0  0  0
  3  4  2  0  0  0  0
  3 17  1  0  0  0  0
  4  5  1  0  0  0  0
  4 13  1  0  0  0  0
  5  6  2  0  0  0  0
  6  7  1  0  0  0  0
  7  8  1  0  0  0  0
  8  9  1  0  0  0  0
  8 24  1  0  0  0  0
  8 25  1  0  0  0  0
  9 10  1  0  0  0  0
  9 26  1  0  0  0  0
  9 27  1  0  0  0  0
 10 11  1  0  0  0  0
 10 12  1  0  0  0  0
 11 28  1  0  0  0  0
 11 29  1  0  0  0  0
 11 30  1  0  0  0  0
 12 31  1  0  0  0  0
 12 32  1  0  0  0  0
 12 33  1  0  0  0  0
 13 14  1  0  0  0  0
 13 20  1  0  0  0  0
 14 15  2  0  0  0  0
 14 16  1  0  0  0  0
 16 17  1  0  0  0  0
 16 19  1  0  0  0  0
 17 18  2  0  0  0  0
 19 34  1  0  0  0  0
 19 35  1  0  0  0  0
 19 36  1  0  0  0  0
 20 37  1  0  0  0  0
 20 38  1  0  0  0  0
 20 39  1  0  0  0  0
M  END
$$$$
Target_lig_579
 OpenBabel04172516573D

 41 44  0  0  1  0  0  0  0  0999 V2000
    0.9356    0.0445    0.1080 C   0  0  0  0  0  0  0  0  0  0  0  0
    2.4366    0.1161    0.1498 C   0  0  0  0  0  0  0  0  0  0  0  0
    3.1531    1.2643    0.1012 C   0  0  0  0  0  0  0  0  0  0  0  0
    4.6922    1.2716    0.1347 C   0  0  0  0  0  0  0  0  0  0  0  0
    5.3630    2.2964    0.1011 O   0  0  0  0  0  0  0  0  0  0  0  0
    5.2994   -0.0542    0.2010 C   0  0  0  0  0  0  0  0  0  0  0  0
    4.5175   -1.1961    0.2681 C   0  0  0  0  0  0  0  0  0  0  0  0
    3.0917   -1.2226    0.2487 C   0  0  0  0  0  0  0  0  0  0  0  0
    2.4317   -2.2558    0.2863 O   0  0  0  0  0  0  0  0  0  0  0  0
    5.3496   -2.2551    0.3063 N   0  0  0  0  0  0  0  0  0  0  0  0
    5.1557   -3.6778    0.0914 C   0  0  0  0  0  0  0  0  0  0  0  0
    6.5527   -4.1528   -0.2696 C   0  0  1  0  0  0  0  0  0  0  0  0
    7.5873   -3.0030   -0.0565 C   0  0  1  0  0  0  0  0  0  0  0  0
    6.6460   -1.8475    0.1901 C   0  0  0  0  0  0  0  0  0  0  0  0
    6.6912   -0.4728    0.1454 C   0  0  0  0  0  0  0  0  0  0  0  0
    7.8977    0.4004    0.0299 C   0  0  0  0  0  0  0  0  0  0  0  0
    7.8884    1.2007   -1.1595 O   0  0  0  0  0  0  0  0  0  0  0  0
    8.3971    0.6140   -2.2583 C   0  0  0  0  0  0  0  0  0  0  0  0
    8.8554   -0.5125   -2.3443 O   0  0  0  0  0  0  0  0  0  0  0  0
    8.3425    1.4753   -3.2978 N   0  0  0  0  0  0  0  0  0  0  0  0
    7.5471   -4.2244    0.7643 N   0  0  0  0  0  0  0  0  0  0  0  0
    8.5779   -5.2066    0.4360 C   0  0  0  0  0  0  0  0  0  0  0  0
    2.4083    2.4420    0.0137 O   0  0  0  0  0  0  0  0  0  0  0  0
    3.0686    3.6965   -0.0413 C   0  0  0  0  0  0  0  0  0  0  0  0
    0.4560    1.0263    0.0732 H   0  0  0  0  0  0  0  0  0  0  0  0
    0.5554   -0.4705    0.9971 H   0  0  0  0  0  0  0  0  0  0  0  0
    0.6091   -0.5103   -0.7788 H   0  0  0  0  0  0  0  0  0  0  0  0
    4.4513   -3.8182   -0.7312 H   0  0  0  0  0  0  0  0  0  0  0  0
    4.7859   -4.1160    1.0229 H   0  0  0  0  0  0  0  0  0  0  0  0
    6.6111   -4.7502   -1.1671 H   0  0  0  0  0  0  0  0  0  0  0  0
    8.4878   -2.8434   -0.6307 H   0  0  0  0  0  0  0  0  0  0  0  0
    8.8269   -0.1785    0.1027 H   0  0  0  0  0  0  0  0  0  0  0  0
    7.9123    1.0957    0.8777 H   0  0  0  0  0  0  0  0  0  0  0  0
    7.9636    2.3988   -3.1572 H   0  0  0  0  0  0  0  0  0  0  0  0
    8.6822    1.1827   -4.2000 H   0  0  0  0  0  0  0  0  0  0  0  0
    9.4792   -5.0203    1.0268 H   0  0  0  0  0  0  0  0  0  0  0  0
    8.8636   -5.2201   -0.6238 H   0  0  0  0  0  0  0  0  0  0  0  0
    8.2154   -6.2097    0.6906 H   0  0  0  0  0  0  0  0  0  0  0  0
    2.2948    4.4707   -0.0708 H   0  0  0  0  0  0  0  0  0  0  0  0
    3.6598    3.7888   -0.9569 H   0  0  0  0  0  0  0  0  0  0  0  0
    3.6661    3.8703    0.8578 H   0  0  0  0  0  0  0  0  0  0  0  0
  1  2  1  0  0  0  0
  1 25  1  0  0  0  0
  1 26  1  0  0  0  0
  1 27  1  0  0  0  0
  2  3  2  0  0  0  0
  2  8  1  0  0  0  0
  3  4  1  0  0  0  0
  3 23  1  0  0  0  0
  4  5  2  0  0  0  0
  4  6  1  0  0  0  0
  6  7  2  0  0  0  0
  6 15  1  0  0  0  0
  7  8  1  0  0  0  0
  7 10  1  0  0  0  0
  8  9  2  0  0  0  0
 10 11  1  0  0  0  0
 10 14  1  0  0  0  0
 11 12  1  0  0  0  0
 11 28  1  0  0  0  0
 11 29  1  0  0  0  0
 12 13  1  0  0  0  0
 12 21  1  0  0  0  0
 12 30  1  6  0  0  0
 13 14  1  0  0  0  0
 13 21  1  0  0  0  0
 13 31  1  6  0  0  0
 14 15  2  0  0  0  0
 15 16  1  0  0  0  0
 16 17  1  0  0  0  0
 16 32  1  0  0  0  0
 16 33  1  0  0  0  0
 17 18  1  0  0  0  0
 18 19  2  0  0  0  0
 18 20  1  0  0  0  0
 20 34  1  0  0  0  0
 20 35  1  0  0  0  0
 21 22  1  0  0  0  0
 22 36  1  0  0  0  0
 22 37  1  0  0  0  0
 22 38  1  0  0  0  0
 23 24  1  0  0  0  0
 24 39  1  0  0  0  0
 24 40  1  0  0  0  0
 24 41  1  0  0  0  0
M  END
$$$$
Target_lig_580
 OpenBabel04172516573D

 39 42  0  0  1  0  0  0  0  0999 V2000
    2.7465   -0.8601   -0.8736 C   0  0  0  0  0  0  0  0  0  0  0  0
    3.9175   -1.6347   -0.3503 N   0  0  0  0  0  0  0  0  0  0  0  0
    5.0905   -1.2415   -1.0824 C   0  0  0  0  0  0  0  0  0  0  0  0
    5.8386   -1.9048   -1.9879 N   0  0  0  0  0  0  0  0  0  0  0  0
    6.9170   -1.2361   -2.4876 C   0  0  0  0  0  0  0  0  0  0  0  0
    7.2633    0.0825   -2.3642 N   0  0  0  0  0  0  0  0  0  0  0  0
    6.5008    0.6601   -1.4128 C   0  0  0  0  0  0  0  0  0  0  0  0
    5.5723   -0.0053   -0.6945 C   0  0  0  0  0  0  0  0  0  0  0  0
    5.2536    0.6300    0.4682 C   0  0  0  0  0  0  0  0  0  0  0  0
    5.5227    1.9620    0.1558 C   0  0  0  0  0  0  0  0  0  0  0  0
    6.2297    1.9622   -1.0728 N   0  0  0  0  0  0  0  0  0  0  0  0
    6.1975    3.0533   -2.0464 C   0  0  3  0  0  0  0  0  0  0  0  0
    5.8103    2.6633   -3.4817 C   0  0  3  0  0  0  0  0  0  0  0  0
    6.7332    3.4928   -4.3674 C   0  0  3  0  0  0  0  0  0  0  0  0
    7.4975    4.3889   -3.3830 C   0  0  3  0  0  0  0  0  0  0  0  0
    7.4796    3.7062   -2.1145 O   0  0  0  0  0  0  0  0  0  0  0  0
    6.9041    5.7940   -3.2359 C   0  0  0  0  0  0  0  0  0  0  0  0
    6.9056    6.4654   -4.4927 O   0  0  0  0  0  0  0  0  0  0  0  0
    5.9758    4.1303   -5.3978 O   0  0  0  0  0  0  0  0  0  0  0  0
    4.4281    2.9679   -3.7354 O   0  0  0  0  0  0  0  0  0  0  0  0
    4.6810   -0.2604    1.4400 C   0  0  0  0  0  0  0  0  0  0  0  0
    4.0400   -1.3517    1.0710 N   0  0  0  0  0  0  0  0  0  0  0  0
    5.1332   -0.1262    2.7146 N   0  0  0  0  0  0  0  0  0  0  0  0
    2.8499   -0.5612   -1.9120 H   0  0  0  0  0  0  0  0  0  0  0  0
    2.5727    0.0529   -0.2915 H   0  0  0  0  0  0  0  0  0  0  0  0
    1.8380   -1.4654   -0.7710 H   0  0  0  0  0  0  0  0  0  0  0  0
    7.6284   -1.8455   -3.0593 H   0  0  0  0  0  0  0  0  0  0  0  0
    5.1838    2.8839    0.6048 H   0  0  0  0  0  0  0  0  0  0  0  0
    5.4725    3.7832   -1.6609 H   0  0  0  0  0  0  0  0  0  0  0  0
    5.9473    1.6106   -3.7333 H   0  0  0  0  0  0  0  0  0  0  0  0
    7.4566    2.8265   -4.8561 H   0  0  0  0  0  0  0  0  0  0  0  0
    8.5393    4.4832   -3.7103 H   0  0  0  0  0  0  0  0  0  0  0  0
    7.4646    6.3834   -2.5030 H   0  0  0  0  0  0  0  0  0  0  0  0
    5.8693    5.7486   -2.8809 H   0  0  0  0  0  0  0  0  0  0  0  0
    7.8263    6.7255   -4.6843 H   0  0  0  0  0  0  0  0  0  0  0  0
    6.1194    5.1008   -5.3445 H   0  0  0  0  0  0  0  0  0  0  0  0
    4.4248    3.4031   -4.6165 H   0  0  0  0  0  0  0  0  0  0  0  0
    6.1429   -0.0644    2.7188 H   0  0  0  0  0  0  0  0  0  0  0  0
    4.8851   -0.9708    3.2085 H   0  0  0  0  0  0  0  0  0  0  0  0
  1  2  1  0  0  0  0
  1 24  1  0  0  0  0
  1 25  1  0  0  0  0
  1 26  1  0  0  0  0
  2  3  1  0  0  0  0
  2 22  1  0  0  0  0
  3  4  2  0  0  0  0
  3  8  1  0  0  0  0
  4  5  1  0  0  0  0
  5  6  2  0  0  0  0
  5 27  1  0  0  0  0
  6  7  1  0  0  0  0
  7  8  2  0  0  0  0
  7 11  1  0  0  0  0
  8  9  1  0  0  0  0
  9 10  2  0  0  0  0
  9 21  1  0  0  0  0
 10 11  1  0  0  0  0
 10 28  1  0  0  0  0
 11 12  1  0  0  0  0
 12 13  1  0  0  0  0
 12 16  1  0  0  0  0
 12 29  1  0  0  0  0
 13 14  1  0  0  0  0
 13 20  1  0  0  0  0
 13 30  1  0  0  0  0
 14 15  1  0  0  0  0
 14 19  1  0  0  0  0
 14 31  1  0  0  0  0
 15 16  1  0  0  0  0
 15 17  1  0  0  0  0
 15 32  1  0  0  0  0
 17 18  1  0  0  0  0
 17 33  1  0  0  0  0
 17 34  1  0  0  0  0
 18 35  1  0  0  0  0
 19 36  1  0  0  0  0
 20 37  1  0  0  0  0
 21 22  2  0  0  0  0
 21 23  1  0  0  0  0
 23 38  1  0  0  0  0
 23 39  1  0  0  0  0
M  END
$$$$
Target_lig_581
 OpenBabel04172516573D

 46 47  0  0  1  0  0  0  0  0999 V2000
    1.1135    0.0995   -0.3467 C   0  0  0  0  0  0  0  0  0  0  0  0
    2.6203    0.1712   -0.0579 N   0  3  0  0  0  0  0  0  0  0  0  0
    3.0460   -1.1009    0.6931 C   0  0  0  0  0  0  0  0  0  0  0  0
    4.5530   -1.1382    0.9554 C   0  0  0  0  0  0  0  0  0  0  0  0
    5.2099    0.1987    1.2135 C   0  0  0  0  0  0  0  0  0  0  0  0
    6.6001    0.2211    1.4280 C   0  0  0  0  0  0  0  0  0  0  0  0
    7.2614    1.4377    1.5225 C   0  0  0  0  0  0  0  0  0  0  0  0
    6.5531    2.6292    1.4273 C   0  0  0  0  0  0  0  0  0  0  0  0
    5.1794    2.6310    1.2330 C   0  0  0  0  0  0  0  0  0  0  0  0
    4.4914    1.4130    1.1092 C   0  0  0  0  0  0  0  0  0  0  0  0
    3.0013    1.4228    0.7995 C   0  0  3  0  0  0  0  0  0  0  0  0
    2.1494    1.4934    2.1030 C   0  0  0  0  0  0  0  0  0  0  0  0
    2.1926    2.7354    2.9757 C   0  0  0  0  0  0  0  0  0  0  0  0
    2.3742    2.5771    4.3656 C   0  0  0  0  0  0  0  0  0  0  0  0
    2.1715    3.6520    5.2262 C   0  0  0  0  0  0  0  0  0  0  0  0
    1.8343    4.8998    4.7174 C   0  0  0  0  0  0  0  0  0  0  0  0
    1.7004    5.0932    3.3500 C   0  0  0  0  0  0  0  0  0  0  0  0
    1.8697    4.0083    2.4802 C   0  0  0  0  0  0  0  0  0  0  0  0
    1.5836    5.9367    5.5690 O   0  0  0  0  0  0  0  0  0  0  0  0
    2.2378    3.5145    6.5844 O   0  0  0  0  0  0  0  0  0  0  0  0
    7.2109    3.8227    1.4931 O   0  0  0  0  0  0  0  0  0  0  0  0
    8.6166    1.5138    1.6776 O   0  0  0  0  0  0  0  0  0  0  0  0
    3.2969    0.2045   -1.4373 C   0  0  0  0  0  0  0  0  0  0  0  0
    0.7285   -3.5860   -1.2221 Br  0  5  0  0  0  0  0  0  0  0  0  0
    0.5938   -0.2941    0.5301 H   0  0  0  0  0  0  0  0  0  0  0  0
    0.9480   -0.5431   -1.2116 H   0  0  0  0  0  0  0  0  0  0  0  0
    0.7676    1.1099   -0.5856 H   0  0  0  0  0  0  0  0  0  0  0  0
    2.7602   -1.9644    0.0998 H   0  0  0  0  0  0  0  0  0  0  0  0
    2.4848   -1.1387    1.6326 H   0  0  0  0  0  0  0  0  0  0  0  0
    5.0368   -1.5793    0.0737 H   0  0  0  0  0  0  0  0  0  0  0  0
    4.7506   -1.8151    1.7953 H   0  0  0  0  0  0  0  0  0  0  0  0
    7.1532   -0.7137    1.4756 H   0  0  0  0  0  0  0  0  0  0  0  0
    4.6654    3.5856    1.1504 H   0  0  0  0  0  0  0  0  0  0  0  0
    2.7740    2.2806    0.1545 H   0  0  0  0  0  0  0  0  0  0  0  0
    2.4060    0.6392    2.7399 H   0  0  0  0  0  0  0  0  0  0  0  0
    1.0878    1.3786    1.8581 H   0  0  0  0  0  0  0  0  0  0  0  0
    2.6301    1.6035    4.7732 H   0  0  0  0  0  0  0  0  0  0  0  0
    1.4322    6.0760    2.9689 H   0  0  0  0  0  0  0  0  0  0  0  0
    1.6923    4.1744    1.4171 H   0  0  0  0  0  0  0  0  0  0  0  0
    1.6675    5.5497    6.4639 H   0  0  0  0  0  0  0  0  0  0  0  0
    2.2980    2.5662    6.7932 H   0  0  0  0  0  0  0  0  0  0  0  0
    8.1523    3.5837    1.6137 H   0  0  0  0  0  0  0  0  0  0  0  0
    8.9808    0.6114    1.6830 H   0  0  0  0  0  0  0  0  0  0  0  0
    3.0990   -0.7447   -1.9441 H   0  0  0  0  0  0  0  0  0  0  0  0
    4.3751    0.3450   -1.3302 H   0  0  0  0  0  0  0  0  0  0  0  0
    2.8750    1.0388   -2.0030 H   0  0  0  0  0  0  0  0  0  0  0  0
  1  2  1  0  0  0  0
  1 25  1  0  0  0  0
  1 26  1  0  0  0  0
  1 27  1  0  0  0  0
  2  3  1  0  0  0  0
  2 11  1  0  0  0  0
  2 23  1  0  0  0  0
  3  4  1  0  0  0  0
  3 28  1  0  0  0  0
  3 29  1  0  0  0  0
  4  5  1  0  0  0  0
  4 30  1  0  0  0  0
  4 31  1  0  0  0  0
  5  6  2  0  0  0  0
  5 10  1  0  0  0  0
  6  7  1  0  0  0  0
  6 32  1  0  0  0  0
  7  8  2  0  0  0  0
  7 22  1  0  0  0  0
  8  9  1  0  0  0  0
  8 21  1  0  0  0  0
  9 10  2  0  0  0  0
  9 33  1  0  0  0  0
 10 11  1  0  0  0  0
 11 12  1  0  0  0  0
 11 34  1  0  0  0  0
 12 13  1  0  0  0  0
 12 35  1  0  0  0  0
 12 36  1  0  0  0  0
 13 14  2  0  0  0  0
 13 18  1  0  0  0  0
 14 15  1  0  0  0  0
 14 37  1  0  0  0  0
 15 16  2  0  0  0  0
 15 20  1  0  0  0  0
 16 17  1  0  0  0  0
 16 19  1  0  0  0  0
 17 18  2  0  0  0  0
 17 38  1  0  0  0  0
 18 39  1  0  0  0  0
 19 40  1  0  0  0  0
 20 41  1  0  0  0  0
 21 42  1  0  0  0  0
 22 43  1  0  0  0  0
 23 44  1  0  0  0  0
 23 45  1  0  0  0  0
 23 46  1  0  0  0  0
M  CHG  2   2   1  24  -1
M  END
$$$$
Target_lig_582
 OpenBabel04172516573D

 40 43  0  0  0  0  0  0  0  0999 V2000
   -1.5097    0.0180    0.6479 C   0  0  0  0  0  0  0  0  0  0  0  0
   -1.0494   -1.1541    0.0630 C   0  0  0  0  0  0  0  0  0  0  0  0
    0.1439   -1.1477   -0.6606 C   0  0  0  0  0  0  0  0  0  0  0  0
    0.8745    0.0347   -0.8144 C   0  0  0  0  0  0  0  0  0  0  0  0
    0.4182    1.2342   -0.2523 C   0  0  0  0  0  0  0  0  0  0  0  0
   -0.7780    1.1972    0.4932 C   0  0  0  0  0  0  0  0  0  0  0  0
    1.0893    2.5458   -0.3183 C   0  0  0  0  0  0  0  0  0  0  0  0
    1.8819    3.0916   -1.2443 C   0  0  0  0  0  0  0  0  0  0  0  0
    2.3263    4.5094   -1.1705 C   0  0  0  0  0  0  0  0  0  0  0  0
    2.1383    5.2576   -0.2239 O   0  0  0  0  0  0  0  0  0  0  0  0
    3.0061    4.7572   -2.3559 N   0  0  0  0  0  0  0  0  0  0  0  0
    3.1688    3.5577   -3.0451 C   0  0  0  0  0  0  0  0  0  0  0  0
    3.8771    3.3219   -4.0091 O   0  0  0  0  0  0  0  0  0  0  0  0
    2.4109    2.5853   -2.3872 N   0  0  0  0  0  0  0  0  0  0  0  0
    3.4828    6.0295   -2.6157 C   0  0  0  0  0  0  0  0  0  0  0  0
    4.2924    6.5519   -3.5580 C   0  0  0  0  0  0  0  0  0  0  0  0
    4.9601    7.7750   -3.0257 C   0  0  0  0  0  0  0  0  0  0  0  0
    4.4587    8.8767   -2.9386 O   0  0  0  0  0  0  0  0  0  0  0  0
    6.2005    7.3392   -2.3522 C   0  0  0  0  0  0  0  0  0  0  0  0
    6.3601    7.6818   -1.0106 C   0  0  0  0  0  0  0  0  0  0  0  0
    6.9473    6.7430   -0.1629 C   0  0  0  0  0  0  0  0  0  0  0  0
    7.4259    5.5249   -0.6699 C   0  0  0  0  0  0  0  0  0  0  0  0
    7.3870    5.2525   -2.0378 C   0  0  0  0  0  0  0  0  0  0  0  0
    6.7545    6.1594   -2.8702 C   0  0  0  0  0  0  0  0  0  0  0  0
    6.4298    5.7228   -4.1761 O   0  0  0  0  0  0  0  0  0  0  0  0
    5.0913    5.8434   -4.5684 C   0  0  0  0  0  0  0  0  0  0  0  0
    4.6753    5.5345   -5.6738 O   0  0  0  0  0  0  0  0  0  0  0  0
    2.0514   -0.0048   -1.5137 O   0  0  0  0  0  0  0  0  0  0  0  0
   -2.4304    0.0241    1.2198 H   0  0  0  0  0  0  0  0  0  0  0  0
   -1.6158   -2.0728    0.1765 H   0  0  0  0  0  0  0  0  0  0  0  0
    0.4840   -2.0798   -1.1020 H   0  0  0  0  0  0  0  0  0  0  0  0
   -1.1650    2.1074    0.9582 H   0  0  0  0  0  0  0  0  0  0  0  0
    0.8297    3.1960    0.5199 H   0  0  0  0  0  0  0  0  0  0  0  0
    2.3637    1.6084   -2.6492 H   0  0  0  0  0  0  0  0  0  0  0  0
    3.1861    6.7178   -1.8176 H   0  0  0  0  0  0  0  0  0  0  0  0
    5.8821    8.5693   -0.5994 H   0  0  0  0  0  0  0  0  0  0  0  0
    6.9520    6.9182    0.9113 H   0  0  0  0  0  0  0  0  0  0  0  0
    7.7794    4.7585    0.0163 H   0  0  0  0  0  0  0  0  0  0  0  0
    7.7142    4.2928   -2.4267 H   0  0  0  0  0  0  0  0  0  0  0  0
    2.2924   -0.9341   -1.6395 H   0  0  0  0  0  0  0  0  0  0  0  0
  1  2  2  0  0  0  0
  1  6  1  0  0  0  0
  1 29  1  0  0  0  0
  2  3  1  0  0  0  0
  2 30  1  0  0  0  0
  3  4  2  0  0  0  0
  3 31  1  0  0  0  0
  4  5  1  0  0  0  0
  4 28  1  0  0  0  0
  5  6  2  0  0  0  0
  5  7  1  0  0  0  0
  6 32  1  0  0  0  0
  7  8  2  0  0  0  0
  7 33  1  0  0  0  0
  8  9  1  0  0  0  0
  8 14  1  0  0  0  0
  9 10  2  0  0  0  0
  9 11  1  0  0  0  0
 11 12  1  0  0  0  0
 11 15  1  0  0  0  0
 12 13  2  0  0  0  0
 12 14  1  0  0  0  0
 14 34  1  0  0  0  0
 15 16  2  0  0  0  0
 15 35  1  0  0  0  0
 16 17  1  0  0  0  0
 16 26  1  0  0  0  0
 17 18  2  0  0  0  0
 17 19  1  0  0  0  0
 19 20  2  0  0  0  0
 19 24  1  0  0  0  0
 20 21  1  0  0  0  0
 20 36  1  0  0  0  0
 21 22  2  0  0  0  0
 21 37  1  0  0  0  0
 22 23  1  0  0  0  0
 22 38  1  0  0  0  0
 23 24  2  0  0  0  0
 23 39  1  0  0  0  0
 24 25  1  0  0  0  0
 25 26  1  0  0  0  0
 26 27  2  0  0  0  0
 28 40  1  0  0  0  0
M  END
$$$$
Target_lig_583
 OpenBabel04172516573D

 47 50  0  0  1  0  0  0  0  0999 V2000
    0.9327   -0.0297   -0.0745 C   0  0  0  0  0  0  0  0  0  0  0  0
    2.4522   -0.0375   -0.0326 N   0  3  0  0  0  0  0  0  0  0  0  0
    3.1682    1.1492   -0.7263 C   0  0  3  0  0  0  0  0  0  0  0  0
    2.5650    1.3493   -2.1212 C   0  0  0  0  0  0  0  0  0  0  0  0
    2.3769    0.0519   -2.9497 C   0  0  3  0  0  0  0  0  0  0  0  0
    2.5710   -1.2948   -2.2096 C   0  0  0  0  0  0  0  0  0  0  0  0
    3.1642   -1.1847   -0.7976 C   0  0  3  0  0  0  0  0  0  0  0  0
    4.6253   -0.7723   -0.8574 C   0  0  3  0  0  0  0  0  0  0  0  0
    4.6281    0.7329   -0.8129 C   0  0  3  0  0  0  0  0  0  0  0  0
    5.0766    0.0132   -1.9583 O   0  0  0  0  0  0  0  0  0  0  0  0
    3.2622    0.0721   -4.0908 O   0  0  0  0  0  0  0  0  0  0  0  0
    2.8677    0.8793   -5.1246 C   0  0  0  0  0  0  0  0  0  0  0  0
    1.8323    1.5374   -5.1110 O   0  0  0  0  0  0  0  0  0  0  0  0
    3.8921    0.8597   -6.2461 C   0  0  3  0  0  0  0  0  0  0  0  0
    3.2372    0.2546   -7.4909 C   0  0  0  0  0  0  0  0  0  0  0  0
    2.8388   -1.0935   -7.2420 O   0  0  0  0  0  0  0  0  0  0  0  0
    4.4608    2.2429   -6.5147 C   0  0  0  0  0  0  0  0  0  0  0  0
    5.8304    2.4942   -6.3415 C   0  0  0  0  0  0  0  0  0  0  0  0
    6.3607    3.7563   -6.6220 C   0  0  0  0  0  0  0  0  0  0  0  0
    5.5311    4.7813   -7.0723 C   0  0  0  0  0  0  0  0  0  0  0  0
    4.1683    4.5511   -7.2326 C   0  0  0  0  0  0  0  0  0  0  0  0
    3.6367    3.2925   -6.9543 C   0  0  0  0  0  0  0  0  0  0  0  0
    2.8287   -0.0749    1.4584 C   0  0  0  0  0  0  0  0  0  0  0  0
    0.5606   -0.0215   -1.0978 H   0  0  0  0  0  0  0  0  0  0  0  0
    0.5846    0.8679    0.4456 H   0  0  0  0  0  0  0  0  0  0  0  0
    0.5756   -0.9310    0.4327 H   0  0  0  0  0  0  0  0  0  0  0  0
    3.0363    2.0378   -0.0993 H   0  0  0  0  0  0  0  0  0  0  0  0
    3.1776    2.0757   -2.6702 H   0  0  0  0  0  0  0  0  0  0  0  0
    1.5820    1.8237   -2.0046 H   0  0  0  0  0  0  0  0  0  0  0  0
    1.3498    0.0349   -3.3397 H   0  0  0  0  0  0  0  0  0  0  0  0
    3.1851   -1.9760   -2.8128 H   0  0  0  0  0  0  0  0  0  0  0  0
    1.5909   -1.7824   -2.1259 H   0  0  0  0  0  0  0  0  0  0  0  0
    3.0232   -2.1089   -0.2259 H   0  0  0  0  0  0  0  0  0  0  0  0
    5.3230   -1.3446   -0.2676 H   0  0  0  0  0  0  0  0  0  0  0  0
    5.3271    1.2621   -0.1855 H   0  0  0  0  0  0  0  0  0  0  0  0
    4.7059    0.1891   -5.9369 H   0  0  0  0  0  0  0  0  0  0  0  0
    3.9304    0.2523   -8.3406 H   0  0  0  0  0  0  0  0  0  0  0  0
    2.3463    0.8125   -7.7993 H   0  0  0  0  0  0  0  0  0  0  0  0
    3.6345   -1.6520   -7.2819 H   0  0  0  0  0  0  0  0  0  0  0  0
    6.5037    1.7112   -5.9986 H   0  0  0  0  0  0  0  0  0  0  0  0
    7.4254    3.9407   -6.4993 H   0  0  0  0  0  0  0  0  0  0  0  0
    5.9460    5.7594   -7.3030 H   0  0  0  0  0  0  0  0  0  0  0  0
    3.5171    5.3489   -7.5813 H   0  0  0  0  0  0  0  0  0  0  0  0
    2.5656    3.1427   -7.0848 H   0  0  0  0  0  0  0  0  0  0  0  0
    2.4029    0.8122    1.9372 H   0  0  0  0  0  0  0  0  0  0  0  0
    3.9149   -0.0740    1.5745 H   0  0  0  0  0  0  0  0  0  0  0  0
    2.4084   -0.9873    1.8913 H   0  0  0  0  0  0  0  0  0  0  0  0
  1  2  1  0  0  0  0
  1 24  1  0  0  0  0
  1 25  1  0  0  0  0
  1 26  1  0  0  0  0
  2  3  1  0  0  0  0
  2  7  1  0  0  0  0
  2 23  1  0  0  0  0
  3  4  1  0  0  0  0
  3  9  1  0  0  0  0
  3 27  1  0  0  0  0
  4  5  1  0  0  0  0
  4 28  1  0  0  0  0
  4 29  1  0  0  0  0
  5  6  1  0  0  0  0
  5 11  1  0  0  0  0
  5 30  1  0  0  0  0
  6  7  1  0  0  0  0
  6 31  1  0  0  0  0
  6 32  1  0  0  0  0
  7  8  1  0  0  0  0
  7 33  1  0  0  0  0
  8  9  1  0  0  0  0
  8 10  1  0  0  0  0
  8 34  1  0  0  0  0
  9 10  1  0  0  0  0
  9 35  1  0  0  0  0
 11 12  1  0  0  0  0
 12 13  2  0  0  0  0
 12 14  1  0  0  0  0
 14 15  1  0  0  0  0
 14 17  1  0  0  0  0
 14 36  1  0  0  0  0
 15 16  1  0  0  0  0
 15 37  1  0  0  0  0
 15 38  1  0  0  0  0
 16 39  1  0  0  0  0
 17 18  2  0  0  0  0
 17 22  1  0  0  0  0
 18 19  1  0  0  0  0
 18 40  1  0  0  0  0
 19 20  2  0  0  0  0
 19 41  1  0  0  0  0
 20 21  1  0  0  0  0
 20 42  1  0  0  0  0
 21 22  2  0  0  0  0
 21 43  1  0  0  0  0
 22 44  1  0  0  0  0
 23 45  1  0  0  0  0
 23 46  1  0  0  0  0
 23 47  1  0  0  0  0
M  CHG  1   2   1
M  END
$$$$
Target_lig_584
 OpenBabel04172516573D

 63 67  0  0  0  0  0  0  0  0999 V2000
   -2.1633    0.3900   -1.3510 C   0  0  0  0  0  0  0  0  0  0  0  0
   -3.3396    0.1615   -2.0493 C   0  0  0  0  0  0  0  0  0  0  0  0
   -3.7937   -1.1392   -2.2506 C   0  0  0  0  0  0  0  0  0  0  0  0
   -3.0986   -2.2282   -1.7551 C   0  0  0  0  0  0  0  0  0  0  0  0
   -1.9158   -2.0264   -1.0146 C   0  0  0  0  0  0  0  0  0  0  0  0
   -1.4520   -0.6975   -0.8401 C   0  0  0  0  0  0  0  0  0  0  0  0
   -1.2571   -3.1829   -0.5072 C   0  0  0  0  0  0  0  0  0  0  0  0
   -1.8346   -4.4651   -0.7236 C   0  0  0  0  0  0  0  0  0  0  0  0
   -2.9818   -4.5297   -1.5190 C   0  0  0  0  0  0  0  0  0  0  0  0
   -3.5958   -3.4457   -2.0097 N   0  0  0  0  0  0  0  0  0  0  0  0
   -3.5264   -5.7741   -1.8054 C   0  0  0  0  0  0  0  0  0  0  0  0
   -2.9991   -6.9947   -1.3162 C   0  0  0  0  0  0  0  0  0  0  0  0
   -1.8895   -6.9326   -0.4754 C   0  0  0  0  0  0  0  0  0  0  0  0
   -1.3483   -5.6747   -0.1752 C   0  0  0  0  0  0  0  0  0  0  0  0
   -1.1919   -7.9205    0.1545 O   0  0  0  0  0  0  0  0  0  0  0  0
   -1.4311   -9.2841   -0.1235 C   0  0  0  0  0  0  0  0  0  0  0  0
   -3.6921   -8.2494   -1.7585 C   0  0  0  0  0  0  0  0  0  0  0  0
   -0.0557   -3.0234    0.2409 N   0  0  0  0  0  0  0  0  0  0  0  0
    1.1752   -3.7009    0.1453 C   0  0  0  0  0  0  0  0  0  0  0  0
    2.0693   -3.6693    1.2221 C   0  0  0  0  0  0  0  0  0  0  0  0
    3.3194   -4.2933    1.1445 C   0  0  0  0  0  0  0  0  0  0  0  0
    3.7007   -4.9421   -0.0273 C   0  0  0  0  0  0  0  0  0  0  0  0
    2.8305   -5.0111   -1.1155 C   0  0  0  0  0  0  0  0  0  0  0  0
    1.5590   -4.4080   -1.0016 C   0  0  0  0  0  0  0  0  0  0  0  0
    3.2553   -5.5986   -2.4481 C   0  0  0  0  0  0  0  0  0  0  0  0
    3.0730   -4.6359   -3.5476 N   0  0  0  0  0  0  0  0  0  0  0  0
    3.8371   -3.3912   -3.3366 C   0  0  0  0  0  0  0  0  0  0  0  0
    3.5591   -2.3774   -4.4656 C   0  0  0  0  0  0  0  0  0  0  0  0
    3.8461   -2.8770   -5.8242 N   0  0  0  0  0  0  0  0  0  0  0  0
    3.2012   -4.1969   -6.0005 C   0  0  0  0  0  0  0  0  0  0  0  0
    3.4318   -5.2133   -4.8522 C   0  0  0  0  0  0  0  0  0  0  0  0
    5.2834   -2.9378   -6.0719 C   0  0  0  0  0  0  0  0  0  0  0  0
    4.9523   -5.4780   -0.1340 O   0  0  0  0  0  0  0  0  0  0  0  0
   -4.2404    1.4908   -2.6707 Cl  0  0  0  0  0  0  0  0  0  0  0  0
   -1.7944    1.4018   -1.2047 H   0  0  0  0  0  0  0  0  0  0  0  0
   -4.7109   -1.3115   -2.8094 H   0  0  0  0  0  0  0  0  0  0  0  0
   -0.5216   -0.5038   -0.3113 H   0  0  0  0  0  0  0  0  0  0  0  0
   -4.4089   -5.7930   -2.4442 H   0  0  0  0  0  0  0  0  0  0  0  0
   -0.5054   -5.6514    0.5123 H   0  0  0  0  0  0  0  0  0  0  0  0
   -0.6410   -9.8603    0.3690 H   0  0  0  0  0  0  0  0  0  0  0  0
   -1.3625   -9.5037   -1.1912 H   0  0  0  0  0  0  0  0  0  0  0  0
   -2.3804   -9.6056    0.3104 H   0  0  0  0  0  0  0  0  0  0  0  0
   -4.5886   -8.0289   -2.3488 H   0  0  0  0  0  0  0  0  0  0  0  0
   -4.0268   -8.8351   -0.8997 H   0  0  0  0  0  0  0  0  0  0  0  0
   -3.0375   -8.8435   -2.4027 H   0  0  0  0  0  0  0  0  0  0  0  0
   -0.1771   -2.4568    1.0717 H   0  0  0  0  0  0  0  0  0  0  0  0
    1.8009   -3.1530    2.1396 H   0  0  0  0  0  0  0  0  0  0  0  0
    3.9857   -4.2472    2.0000 H   0  0  0  0  0  0  0  0  0  0  0  0
    0.8950   -4.4433   -1.8643 H   0  0  0  0  0  0  0  0  0  0  0  0
    2.6323   -6.4855   -2.6268 H   0  0  0  0  0  0  0  0  0  0  0  0
    4.2940   -5.9492   -2.4188 H   0  0  0  0  0  0  0  0  0  0  0  0
    4.9114   -3.6022   -3.2618 H   0  0  0  0  0  0  0  0  0  0  0  0
    3.5447   -2.9014   -2.4017 H   0  0  0  0  0  0  0  0  0  0  0  0
    4.1163   -1.4526   -4.2717 H   0  0  0  0  0  0  0  0  0  0  0  0
    2.4984   -2.0933   -4.4232 H   0  0  0  0  0  0  0  0  0  0  0  0
    3.5101   -4.6424   -6.9538 H   0  0  0  0  0  0  0  0  0  0  0  0
    2.1198   -4.0266   -6.0925 H   0  0  0  0  0  0  0  0  0  0  0  0
    4.4789   -5.5431   -4.8566 H   0  0  0  0  0  0  0  0  0  0  0  0
    2.8134   -6.0973   -5.0492 H   0  0  0  0  0  0  0  0  0  0  0  0
    5.7319   -1.9455   -5.9462 H   0  0  0  0  0  0  0  0  0  0  0  0
    5.4757   -3.2359   -7.1077 H   0  0  0  0  0  0  0  0  0  0  0  0
    5.8105   -3.6338   -5.4120 H   0  0  0  0  0  0  0  0  0  0  0  0
    5.4879   -5.1700    0.6153 H   0  0  0  0  0  0  0  0  0  0  0  0
  1  2  1  0  0  0  0
  1  6  2  0  0  0  0
  1 35  1  0  0  0  0
  2  3  2  0  0  0  0
  2 34  1  0  0  0  0
  3  4  1  0  0  0  0
  3 36  1  0  0  0  0
  4  5  1  0  0  0  0
  4 10  2  0  0  0  0
  5  6  1  0  0  0  0
  5  7  2  0  0  0  0
  6 37  1  0  0  0  0
  7  8  1  0  0  0  0
  7 18  1  0  0  0  0
  8  9  1  0  0  0  0
  8 14  2  0  0  0  0
  9 10  1  0  0  0  0
  9 11  2  0  0  0  0
 11 12  1  0  0  0  0
 11 38  1  0  0  0  0
 12 13  2  0  0  0  0
 12 17  1  0  0  0  0
 13 14  1  0  0  0  0
 13 15  1  0  0  0  0
 14 39  1  0  0  0  0
 15 16  1  0  0  0  0
 16 40  1  0  0  0  0
 16 41  1  0  0  0  0
 16 42  1  0  0  0  0
 17 43  1  0  0  0  0
 17 44  1  0  0  0  0
 17 45  1  0  0  0  0
 18 19  1  0  0  0  0
 18 46  1  0  0  0  0
 19 20  1  0  0  0  0
 19 24  2  0  0  0  0
 20 21  2  0  0  0  0
 20 47  1  0  0  0  0
 21 22  1  0  0  0  0
 21 48  1  0  0  0  0
 22 23  2  0  0  0  0
 22 33  1  0  0  0  0
 23 24  1  0  0  0  0
 23 25  1  0  0  0  0
 24 49  1  0  0  0  0
 25 26  1  0  0  0  0
 25 50  1  0  0  0  0
 25 51  1  0  0  0  0
 26 27  1  0  0  0  0
 26 31  1  0  0  0  0
 27 28  1  0  0  0  0
 27 52  1  0  0  0  0
 27 53  1  0  0  0  0
 28 29  1  0  0  0  0
 28 54  1  0  0  0  0
 28 55  1  0  0  0  0
 29 30  1  0  0  0  0
 29 32  1  0  0  0  0
 30 31  1  0  0  0  0
 30 56  1  0  0  0  0
 30 57  1  0  0  0  0
 31 58  1  0  0  0  0
 31 59  1  0  0  0  0
 32 60  1  0  0  0  0
 32 61  1  0  0  0  0
 32 62  1  0  0  0  0
 33 63  1  0  0  0  0
M  END
$$$$
Target_lig_605
 OpenBabel04172516573D

 61 64  0  0  1  0  0  0  0  0999 V2000
    0.9990    0.0020    0.0706 C   0  0  0  0  0  0  0  0  0  0  0  0
    2.4920    0.0968    0.0759 C   0  0  0  0  0  0  0  0  0  0  0  0
    3.1472    1.2689    0.0748 C   0  0  0  0  0  0  0  0  0  0  0  0
    4.5840    1.3166    0.0732 C   0  0  0  0  0  0  0  0  0  0  0  0
    5.2868    0.1787    0.0719 C   0  0  0  0  0  0  0  0  0  0  0  0
    4.6673   -1.0635    0.0767 N   0  0  0  0  0  0  0  0  0  0  0  0
    3.2875   -1.1835    0.0728 C   0  0  0  0  0  0  0  0  0  0  0  0
    2.6680   -2.3210    0.0622 N   0  0  0  0  0  0  0  0  0  0  0  0
    3.3758   -3.5028    0.0312 C   0  0  0  0  0  0  0  0  0  0  0  0
    4.7270   -3.5034    0.0785 C   0  0  0  0  0  0  0  0  0  0  0  0
    5.4517   -2.2027    0.0829 C   0  0  0  0  0  0  0  0  0  0  0  0
    6.6854   -2.1943    0.0774 O   0  0  0  0  0  0  0  0  0  0  0  0
    5.4928   -4.7399    0.1343 C   0  0  0  0  0  0  0  0  0  0  0  0
    4.9292   -5.9566    0.0979 C   0  0  0  0  0  0  0  0  0  0  0  0
    3.4141   -5.9664    0.0239 C   0  0  0  0  0  0  0  0  0  0  0  0
    2.7732   -7.1029    0.0332 N   0  0  0  0  0  0  0  0  0  0  0  0
    2.7056   -4.7512   -0.0422 N   0  0  0  0  0  0  0  0  0  0  0  0
    1.2255   -4.8050    0.0143 C   0  0  0  0  0  0  0  0  0  0  0  0
    0.5064   -4.0771   -1.1297 C   0  0  0  0  0  0  0  0  0  0  0  0
    0.7968   -4.6085   -2.4315 O   0  0  0  0  0  0  0  0  0  0  0  0
    0.0852   -3.8554   -3.4276 C   0  0  0  0  0  0  0  0  0  0  0  0
    0.4070   -4.3853   -4.8199 C   0  0  0  0  0  0  0  0  0  0  0  0
   -0.0064   -5.7424   -4.9438 O   0  0  0  0  0  0  0  0  0  0  0  0
    5.7253   -7.2181    0.2236 C   0  0  0  0  0  0  0  0  0  0  0  0
    5.1874   -8.2635    0.5799 O   0  0  0  0  0  0  0  0  0  0  0  0
    7.0514   -7.1504   -0.1244 N   0  0  0  0  0  0  0  0  0  0  0  0
    7.9120   -8.3271   -0.1217 C   0  0  1  0  0  0  0  0  0  0  0  0
    7.8222   -9.0565   -1.4627 C   0  0  0  0  0  0  0  0  0  0  0  0
    9.3369   -7.9225    0.2153 C   0  0  0  0  0  0  0  0  0  0  0  0
    9.9650   -8.4462    1.3570 C   0  0  0  0  0  0  0  0  0  0  0  0
   11.2533   -8.0390    1.7120 C   0  0  0  0  0  0  0  0  0  0  0  0
   11.9301   -7.1034    0.9329 C   0  0  0  0  0  0  0  0  0  0  0  0
   11.3292   -6.5895   -0.2126 C   0  0  0  0  0  0  0  0  0  0  0  0
   10.0447   -7.0004   -0.5736 C   0  0  0  0  0  0  0  0  0  0  0  0
    0.5300    0.9929    0.0747 H   0  0  0  0  0  0  0  0  0  0  0  0
    0.6413   -0.5342    0.9549 H   0  0  0  0  0  0  0  0  0  0  0  0
    0.6487   -0.5198   -0.8255 H   0  0  0  0  0  0  0  0  0  0  0  0
    2.6146    2.2154    0.0736 H   0  0  0  0  0  0  0  0  0  0  0  0
    5.0767    2.2841    0.0686 H   0  0  0  0  0  0  0  0  0  0  0  0
    6.3736    0.1953    0.0714 H   0  0  0  0  0  0  0  0  0  0  0  0
    6.5641   -4.6171    0.2618 H   0  0  0  0  0  0  0  0  0  0  0  0
    3.4345   -7.8937    0.1267 H   0  0  0  0  0  0  0  0  0  0  0  0
    0.9025   -4.3713    0.9696 H   0  0  0  0  0  0  0  0  0  0  0  0
    0.8577   -5.8365    0.0169 H   0  0  0  0  0  0  0  0  0  0  0  0
    0.7296   -3.0091   -1.1285 H   0  0  0  0  0  0  0  0  0  0  0  0
   -0.5722   -4.1785   -0.9563 H   0  0  0  0  0  0  0  0  0  0  0  0
    0.3764   -2.8011   -3.3644 H   0  0  0  0  0  0  0  0  0  0  0  0
   -0.9892   -3.9527   -3.2348 H   0  0  0  0  0  0  0  0  0  0  0  0
    1.4808   -4.3413   -5.0209 H   0  0  0  0  0  0  0  0  0  0  0  0
   -0.1210   -3.7981   -5.5777 H   0  0  0  0  0  0  0  0  0  0  0  0
    0.3973   -6.2048   -4.1826 H   0  0  0  0  0  0  0  0  0  0  0  0
    7.4203   -6.3178   -0.5559 H   0  0  0  0  0  0  0  0  0  0  0  0
    7.5421   -9.0116    0.6529 H   0  0  0  0  0  0  0  0  0  0  0  0
    8.1639   -8.4275   -2.2926 H   0  0  0  0  0  0  0  0  0  0  0  0
    6.7874   -9.3432   -1.6815 H   0  0  0  0  0  0  0  0  0  0  0  0
    8.4320   -9.9662   -1.4574 H   0  0  0  0  0  0  0  0  0  0  0  0
    9.4515   -9.1708    1.9863 H   0  0  0  0  0  0  0  0  0  0  0  0
   11.7254   -8.4459    2.6028 H   0  0  0  0  0  0  0  0  0  0  0  0
   12.9257   -6.7745    1.2189 H   0  0  0  0  0  0  0  0  0  0  0  0
   11.8568   -5.8614   -0.8235 H   0  0  0  0  0  0  0  0  0  0  0  0
    9.5977   -6.5846   -1.4731 H   0  0  0  0  0  0  0  0  0  0  0  0
  1  2  1  0  0  0  0
  1 35  1  0  0  0  0
  1 36  1  0  0  0  0
  1 37  1  0  0  0  0
  2  3  2  0  0  0  0
  2  7  1  0  0  0  0
  3  4  1  0  0  0  0
  3 38  1  0  0  0  0
  4  5  2  0  0  0  0
  4 39  1  0  0  0  0
  5  6  1  0  0  0  0
  5 40  1  0  0  0  0
  6  7  1  0  0  0  0
  6 11  1  0  0  0  0
  7  8  2  0  0  0  0
  8  9  1  0  0  0  0
  9 10  2  0  0  0  0
  9 17  1  0  0  0  0
 10 11  1  0  0  0  0
 10 13  1  0  0  0  0
 11 12  2  0  0  0  0
 13 14  2  0  0  0  0
 13 41  1  0  0  0  0
 14 15  1  0  0  0  0
 14 24  1  0  0  0  0
 15 16  2  0  0  0  0
 15 17  1  0  0  0  0
 16 42  1  0  0  0  0
 17 18  1  0  0  0  0
 18 19  1  0  0  0  0
 18 43  1  0  0  0  0
 18 44  1  0  0  0  0
 19 20  1  0  0  0  0
 19 45  1  0  0  0  0
 19 46  1  0  0  0  0
 20 21  1  0  0  0  0
 21 22  1  0  0  0  0
 21 47  1  0  0  0  0
 21 48  1  0  0  0  0
 22 23  1  0  0  0  0
 22 49  1  0  0  0  0
 22 50  1  0  0  0  0
 23 51  1  0  0  0  0
 24 25  2  0  0  0  0
 24 26  1  0  0  0  0
 26 27  1  0  0  0  0
 26 52  1  0  0  0  0
 27 28  1  0  0  0  0
 27 29  1  0  0  0  0
 27 53  1  1  0  0  0
 28 54  1  0  0  0  0
 28 55  1  0  0  0  0
 28 56  1  0  0  0  0
 29 30  2  0  0  0  0
 29 34  1  0  0  0  0
 30 31  1  0  0  0  0
 30 57  1  0  0  0  0
 31 32  2  0  0  0  0
 31 58  1  0  0  0  0
 32 33  1  0  0  0  0
 32 59  1  0  0  0  0
 33 34  2  0  0  0  0
 33 60  1  0  0  0  0
 34 61  1  0  0  0  0
M  END
$$$$
Target_lig_606
 OpenBabel04172516573D

 28 30  0  0  0  0  0  0  0  0999 V2000
    2.4462   -0.6761   -0.0207 C   0  0  0  0  0  0  0  0  0  0  0  0
    2.4333    0.7154   -0.0041 C   0  0  0  0  0  0  0  0  0  0  0  0
    1.2178    1.4021   -0.0088 C   0  0  0  0  0  0  0  0  0  0  0  0
   -0.0017    0.7053   -0.0296 C   0  0  0  0  0  0  0  0  0  0  0  0
   -1.2345    1.3810   -0.0135 C   0  0  0  0  0  0  0  0  0  0  0  0
   -2.4414    0.6722   -0.0272 C   0  0  0  0  0  0  0  0  0  0  0  0
   -2.4218   -0.7226   -0.0791 C   0  0  0  0  0  0  0  0  0  0  0  0
   -1.2038   -1.4066   -0.0949 C   0  0  0  0  0  0  0  0  0  0  0  0
    0.0127   -0.7081   -0.0596 C   0  0  0  0  0  0  0  0  0  0  0  0
    1.2438   -1.3839   -0.0523 C   0  0  0  0  0  0  0  0  0  0  0  0
   -3.7169    1.3854    0.0472 C   0  0  0  0  0  0  0  0  0  0  0  0
   -4.4243    1.8360   -0.9976 C   0  0  0  0  0  0  0  0  0  0  0  0
   -4.1002    1.7282   -2.4583 C   0  0  0  0  0  0  0  0  0  0  0  0
   -3.0955    1.1989   -2.9043 O   0  0  0  0  0  0  0  0  0  0  0  0
   -5.0780    2.3116   -3.2404 N   0  0  0  0  0  0  0  0  0  0  0  0
   -6.0462    2.7958   -2.5475 C   0  0  0  0  0  0  0  0  0  0  0  0
   -5.9305    2.6642   -0.8182 S   0  0  0  0  0  0  0  0  0  0  0  0
   -7.1359    3.4113   -3.0613 N   0  0  0  0  0  0  0  0  0  0  0  0
    3.3915   -1.2124   -0.0127 H   0  0  0  0  0  0  0  0  0  0  0  0
    3.3691    1.2679    0.0129 H   0  0  0  0  0  0  0  0  0  0  0  0
    1.2292    2.4896    0.0025 H   0  0  0  0  0  0  0  0  0  0  0  0
   -1.2507    2.4683    0.0144 H   0  0  0  0  0  0  0  0  0  0  0  0
   -3.3487   -1.2899   -0.1068 H   0  0  0  0  0  0  0  0  0  0  0  0
   -1.2123   -2.4935   -0.1348 H   0  0  0  0  0  0  0  0  0  0  0  0
    1.2738   -2.4710   -0.0691 H   0  0  0  0  0  0  0  0  0  0  0  0
   -4.0813    1.5316    1.0620 H   0  0  0  0  0  0  0  0  0  0  0  0
   -7.0285    3.7226   -4.0203 H   0  0  0  0  0  0  0  0  0  0  0  0
   -7.6248    4.0536   -2.4518 H   0  0  0  0  0  0  0  0  0  0  0  0
  1  2  2  0  0  0  0
  1 10  1  0  0  0  0
  1 19  1  0  0  0  0
  2  3  1  0  0  0  0
  2 20  1  0  0  0  0
  3  4  2  0  0  0  0
  3 21  1  0  0  0  0
  4  5  1  0  0  0  0
  4  9  1  0  0  0  0
  5  6  2  0  0  0  0
  5 22  1  0  0  0  0
  6  7  1  0  0  0  0
  6 11  1  0  0  0  0
  7  8  2  0  0  0  0
  7 23  1  0  0  0  0
  8  9  1  0  0  0  0
  8 24  1  0  0  0  0
  9 10  2  0  0  0  0
 10 25  1  0  0  0  0
 11 12  2  0  0  0  0
 11 26  1  0  0  0  0
 12 13  1  0  0  0  0
 12 17  1  0  0  0  0
 13 14  2  0  0  0  0
 13 15  1  0  0  0  0
 15 16  2  0  0  0  0
 16 17  1  0  0  0  0
 16 18  1  0  0  0  0
 18 27  1  0  0  0  0
 18 28  1  0  0  0  0
M  END
$$$$
Target_lig_607
 OpenBabel04172516573D

 34 35  0  0  0  0  0  0  0  0999 V2000
    1.1457    0.7720   -0.1084 C   0  0  0  0  0  0  0  0  0  0  0  0
    2.3905    0.0938   -0.1160 O   0  0  0  0  0  0  0  0  0  0  0  0
    3.0092   -0.1740   -1.3059 C   0  0  0  0  0  0  0  0  0  0  0  0
    2.7189    0.3128   -2.5865 C   0  0  0  0  0  0  0  0  0  0  0  0
    3.5113   -0.1144   -3.6663 C   0  0  0  0  0  0  0  0  0  0  0  0
    4.5466   -1.0472   -3.5173 C   0  0  0  0  0  0  0  0  0  0  0  0
    4.8432   -1.4976   -2.2350 C   0  0  0  0  0  0  0  0  0  0  0  0
    4.0824   -1.0643   -1.1465 C   0  0  0  0  0  0  0  0  0  0  0  0
    5.2876   -1.3676   -4.6579 N   0  0  0  0  0  0  0  0  0  0  0  0
    5.9682   -2.6611   -4.7087 C   0  0  0  0  0  0  0  0  0  0  0  0
    6.2232   -3.1207   -6.1211 C   0  0  0  0  0  0  0  0  0  0  0  0
    5.5019   -2.8262   -7.2657 C   0  0  0  0  0  0  0  0  0  0  0  0
    6.0180   -3.4872   -8.4203 C   0  0  0  0  0  0  0  0  0  0  0  0
    7.1105   -4.2623   -8.1079 C   0  0  0  0  0  0  0  0  0  0  0  0
    7.5200   -4.1910   -6.4596 S   0  0  0  0  0  0  0  0  0  0  0  0
    7.8693   -5.0828   -9.0138 N   0  3  0  0  0  0  0  0  0  0  0  0
    7.4786   -5.1030  -10.1926 O   0  0  0  0  0  0  0  0  0  0  0  0
    8.8402   -5.7091   -8.5735 O   0  5  0  0  0  0  0  0  0  0  0  0
    1.7343    1.2534   -2.7544 O   0  0  0  0  0  0  0  0  0  0  0  0
    1.0251    1.1926   -3.9922 C   0  0  0  0  0  0  0  0  0  0  0  0
    0.6376    0.5021    0.8236 H   0  0  0  0  0  0  0  0  0  0  0  0
    0.4796    0.4669   -0.9191 H   0  0  0  0  0  0  0  0  0  0  0  0
    1.3072    1.8540   -0.0980 H   0  0  0  0  0  0  0  0  0  0  0  0
    3.3436    0.2707   -4.6664 H   0  0  0  0  0  0  0  0  0  0  0  0
    5.6750   -2.1685   -2.0458 H   0  0  0  0  0  0  0  0  0  0  0  0
    4.3286   -1.4240   -0.1490 H   0  0  0  0  0  0  0  0  0  0  0  0
    5.9392   -0.6120   -4.8646 H   0  0  0  0  0  0  0  0  0  0  0  0
    5.3530   -3.4348   -4.2297 H   0  0  0  0  0  0  0  0  0  0  0  0
    6.9132   -2.5911   -4.1551 H   0  0  0  0  0  0  0  0  0  0  0  0
    4.6376   -2.1700   -7.2648 H   0  0  0  0  0  0  0  0  0  0  0  0
    5.5962   -3.3992   -9.4167 H   0  0  0  0  0  0  0  0  0  0  0  0
    0.2086    1.9192   -3.9468 H   0  0  0  0  0  0  0  0  0  0  0  0
    0.5859    0.1999   -4.1458 H   0  0  0  0  0  0  0  0  0  0  0  0
    1.6536    1.4777   -4.8409 H   0  0  0  0  0  0  0  0  0  0  0  0
  1  2  1  0  0  0  0
  1 21  1  0  0  0  0
  1 22  1  0  0  0  0
  1 23  1  0  0  0  0
  2  3  1  0  0  0  0
  3  4  2  0  0  0  0
  3  8  1  0  0  0  0
  4  5  1  0  0  0  0
  4 19  1  0  0  0  0
  5  6  2  0  0  0  0
  5 24  1  0  0  0  0
  6  7  1  0  0  0  0
  6  9  1  0  0  0  0
  7  8  2  0  0  0  0
  7 25  1  0  0  0  0
  8 26  1  0  0  0  0
  9 10  1  0  0  0  0
  9 27  1  0  0  0  0
 10 11  1  0  0  0  0
 10 28  1  0  0  0  0
 10 29  1  0  0  0  0
 11 12  2  0  0  0  0
 11 15  1  0  0  0  0
 12 13  1  0  0  0  0
 12 30  1  0  0  0  0
 13 14  2  0  0  0  0
 13 31  1  0  0  0  0
 14 15  1  0  0  0  0
 14 16  1  0  0  0  0
 16 17  2  0  0  0  0
 16 18  1  0  0  0  0
 19 20  1  0  0  0  0
 20 32  1  0  0  0  0
 20 33  1  0  0  0  0
 20 34  1  0  0  0  0
M  CHG  2  16   1  18  -1
M  END
$$$$
Target_lig_608
 OpenBabel04172516573D

 28 30  0  0  0  0  0  0  0  0999 V2000
    2.4276   -0.6817   -0.0085 C   0  0  0  0  0  0  0  0  0  0  0  0
    2.4242    0.7099   -0.0009 C   0  0  0  0  0  0  0  0  0  0  0  0
    1.2133    1.4048   -0.0076 C   0  0  0  0  0  0  0  0  0  0  0  0
   -0.0109    0.7154   -0.0220 C   0  0  0  0  0  0  0  0  0  0  0  0
   -1.2395    1.3981   -0.0130 C   0  0  0  0  0  0  0  0  0  0  0  0
   -2.4512    0.6962   -0.0195 C   0  0  0  0  0  0  0  0  0  0  0  0
   -2.4404   -0.6988   -0.0594 C   0  0  0  0  0  0  0  0  0  0  0  0
   -1.2266   -1.3899   -0.0666 C   0  0  0  0  0  0  0  0  0  0  0  0
   -0.0057   -0.6981   -0.0396 C   0  0  0  0  0  0  0  0  0  0  0  0
    1.2205   -1.3818   -0.0293 C   0  0  0  0  0  0  0  0  0  0  0  0
   -3.7207    1.4216    0.0331 C   0  0  0  0  0  0  0  0  0  0  0  0
   -4.3809    1.8624   -1.0405 C   0  0  0  0  0  0  0  0  0  0  0  0
   -4.0327    1.7240   -2.4969 C   0  0  0  0  0  0  0  0  0  0  0  0
   -3.0857    1.1559   -3.0010 O   0  0  0  0  0  0  0  0  0  0  0  0
   -5.0406    2.3824   -3.1520 N   0  0  0  0  0  0  0  0  0  0  0  0
   -5.9572    2.8909   -2.2735 C   0  0  0  0  0  0  0  0  0  0  0  0
   -7.3075    3.7480   -2.6714 S   0  0  0  0  0  0  0  0  0  0  0  0
   -5.5569    2.5685   -0.9910 N   0  0  0  0  0  0  0  0  0  0  0  0
    3.3692   -1.2243   -0.0005 H   0  0  0  0  0  0  0  0  0  0  0  0
    3.3638    1.2560    0.0106 H   0  0  0  0  0  0  0  0  0  0  0  0
    1.2321    2.4922   -0.0010 H   0  0  0  0  0  0  0  0  0  0  0  0
   -1.2498    2.4858    0.0003 H   0  0  0  0  0  0  0  0  0  0  0  0
   -3.3708   -1.2603   -0.0880 H   0  0  0  0  0  0  0  0  0  0  0  0
   -1.2410   -2.4770   -0.0944 H   0  0  0  0  0  0  0  0  0  0  0  0
    1.2432   -2.4691   -0.0360 H   0  0  0  0  0  0  0  0  0  0  0  0
   -4.1027    1.5969    1.0341 H   0  0  0  0  0  0  0  0  0  0  0  0
   -5.0857    2.4646   -4.1540 H   0  0  0  0  0  0  0  0  0  0  0  0
   -6.0563    2.8318   -0.1536 H   0  0  0  0  0  0  0  0  0  0  0  0
  1  2  2  0  0  0  0
  1 10  1  0  0  0  0
  1 19  1  0  0  0  0
  2  3  1  0  0  0  0
  2 20  1  0  0  0  0
  3  4  2  0  0  0  0
  3 21  1  0  0  0  0
  4  5  1  0  0  0  0
  4  9  1  0  0  0  0
  5  6  2  0  0  0  0
  5 22  1  0  0  0  0
  6  7  1  0  0  0  0
  6 11  1  0  0  0  0
  7  8  2  0  0  0  0
  7 23  1  0  0  0  0
  8  9  1  0  0  0  0
  8 24  1  0  0  0  0
  9 10  2  0  0  0  0
 10 25  1  0  0  0  0
 11 12  2  0  0  0  0
 11 26  1  0  0  0  0
 12 13  1  0  0  0  0
 12 18  1  0  0  0  0
 13 14  2  0  0  0  0
 13 15  1  0  0  0  0
 15 16  1  0  0  0  0
 15 27  1  0  0  0  0
 16 17  2  0  0  0  0
 16 18  1  0  0  0  0
 18 28  1  0  0  0  0
M  END
$$$$
Target_lig_609
 OpenBabel04172516573D

 42 44  0  0  0  0  0  0  0  0999 V2000
   -5.1618    3.6530    1.5401 C   0  0  0  0  0  0  0  0  0  0  0  0
   -4.4372    2.8226    2.3913 C   0  0  0  0  0  0  0  0  0  0  0  0
   -3.6976    1.7590    1.8710 C   0  0  0  0  0  0  0  0  0  0  0  0
   -3.6748    1.5177    0.4882 C   0  0  0  0  0  0  0  0  0  0  0  0
   -4.4082    2.3639   -0.3589 C   0  0  0  0  0  0  0  0  0  0  0  0
   -5.1465    3.4253    0.1667 C   0  0  0  0  0  0  0  0  0  0  0  0
   -2.8526    0.3956   -0.0794 C   0  0  0  0  0  0  0  0  0  0  0  0
   -3.6278   -0.8678   -0.2026 N   0  3  0  0  0  0  0  0  0  0  0  0
   -3.5872   -1.7771    0.7989 C   0  0  0  0  0  0  0  0  0  0  0  0
   -4.1530   -3.0347    0.6328 C   0  0  0  0  0  0  0  0  0  0  0  0
   -4.7763   -3.3604   -0.5737 C   0  0  0  0  0  0  0  0  0  0  0  0
   -4.8807   -2.3847   -1.5614 C   0  0  0  0  0  0  0  0  0  0  0  0
   -4.2966   -1.1382   -1.3488 C   0  0  0  0  0  0  0  0  0  0  0  0
   -5.2605   -4.7589   -0.7503 C   0  0  0  0  0  0  0  0  0  0  0  0
   -5.5349   -5.3993    0.2571 O   0  0  0  0  0  0  0  0  0  0  0  0
   -5.2360   -5.2457   -2.0491 N   0  0  0  0  0  0  0  0  0  0  0  0
   -5.4622   -6.5674   -2.2816 N   0  0  0  0  0  0  0  0  0  0  0  0
   -4.8857   -7.1400   -3.3022 C   0  0  0  0  0  0  0  0  0  0  0  0
   -3.8209   -6.6016   -4.1817 C   0  0  0  0  0  0  0  0  0  0  0  0
   -2.8238   -5.7549   -3.6832 C   0  0  0  0  0  0  0  0  0  0  0  0
   -1.8580   -5.2255   -4.5395 C   0  0  0  0  0  0  0  0  0  0  0  0
   -1.8615   -5.5861   -5.8851 C   0  0  0  0  0  0  0  0  0  0  0  0
   -2.8090   -6.4857   -6.3756 C   0  0  0  0  0  0  0  0  0  0  0  0
   -3.7915   -6.9990   -5.5214 C   0  0  0  0  0  0  0  0  0  0  0  0
   -0.5658   -4.8508   -7.0473 Br  0  0  0  0  0  0  0  0  0  0  0  0
   -5.7308    4.4868    1.9474 H   0  0  0  0  0  0  0  0  0  0  0  0
   -4.4413    3.0169    3.4626 H   0  0  0  0  0  0  0  0  0  0  0  0
   -3.1237    1.1474    2.5647 H   0  0  0  0  0  0  0  0  0  0  0  0
   -4.3984    2.2338   -1.4391 H   0  0  0  0  0  0  0  0  0  0  0  0
   -5.7021    4.0885   -0.4940 H   0  0  0  0  0  0  0  0  0  0  0  0
   -1.9728    0.1921    0.5429 H   0  0  0  0  0  0  0  0  0  0  0  0
   -2.4715    0.6500   -1.0762 H   0  0  0  0  0  0  0  0  0  0  0  0
   -3.0723   -1.5018    1.7156 H   0  0  0  0  0  0  0  0  0  0  0  0
   -4.0805   -3.7719    1.4333 H   0  0  0  0  0  0  0  0  0  0  0  0
   -5.4103   -2.5714   -2.4922 H   0  0  0  0  0  0  0  0  0  0  0  0
   -4.3385   -0.3565   -2.1024 H   0  0  0  0  0  0  0  0  0  0  0  0
   -4.9428   -4.6844   -2.8368 H   0  0  0  0  0  0  0  0  0  0  0  0
   -5.2132   -8.1685   -3.5357 H   0  0  0  0  0  0  0  0  0  0  0  0
   -2.7700   -5.5260   -2.6220 H   0  0  0  0  0  0  0  0  0  0  0  0
   -1.0981   -4.5533   -4.1488 H   0  0  0  0  0  0  0  0  0  0  0  0
   -2.7904   -6.7921   -7.4192 H   0  0  0  0  0  0  0  0  0  0  0  0
   -4.5259   -7.6993   -5.9156 H   0  0  0  0  0  0  0  0  0  0  0  0
  1  2  2  0  0  0  0
  1  6  1  0  0  0  0
  1 26  1  0  0  0  0
  2  3  1  0  0  0  0
  2 27  1  0  0  0  0
  3  4  2  0  0  0  0
  3 28  1  0  0  0  0
  4  5  1  0  0  0  0
  4  7  1  0  0  0  0
  5  6  2  0  0  0  0
  5 29  1  0  0  0  0
  6 30  1  0  0  0  0
  7  8  1  0  0  0  0
  7 31  1  0  0  0  0
  7 32  1  0  0  0  0
  8  9  2  0  0  0  0
  8 13  1  0  0  0  0
  9 10  1  0  0  0  0
  9 33  1  0  0  0  0
 10 11  2  0  0  0  0
 10 34  1  0  0  0  0
 11 12  1  0  0  0  0
 11 14  1  0  0  0  0
 12 13  2  0  0  0  0
 12 35  1  0  0  0  0
 13 36  1  0  0  0  0
 14 15  2  0  0  0  0
 14 16  1  0  0  0  0
 16 17  1  0  0  0  0
 16 37  1  0  0  0  0
 17 18  2  0  0  0  0
 18 19  1  0  0  0  0
 18 38  1  0  0  0  0
 19 20  2  0  0  0  0
 19 24  1  0  0  0  0
 20 21  1  0  0  0  0
 20 39  1  0  0  0  0
 21 22  2  0  0  0  0
 21 40  1  0  0  0  0
 22 23  1  0  0  0  0
 22 25  1  0  0  0  0
 23 24  2  0  0  0  0
 23 41  1  0  0  0  0
 24 42  1  0  0  0  0
M  CHG  1   8   1
M  END
$$$$
Target_lig_610
 OpenBabel04172516573D

 32 33  0  0  0  0  0  0  0  0999 V2000
   -2.5262    0.0144   -0.0950 C   0  0  0  0  0  0  0  0  0  0  0  0
   -1.0640    0.0076    0.3450 C   0  0  0  0  0  0  0  0  0  0  0  0
   -0.3537   -1.2534   -0.1705 C   0  0  0  0  0  0  0  0  0  0  0  0
    1.1426   -1.2406    0.1510 C   0  0  0  0  0  0  0  0  0  0  0  0
    1.7200    0.0045   -0.3522 N   0  0  0  0  0  0  0  0  0  0  0  0
    1.1432    1.2344    0.1901 C   0  0  0  0  0  0  0  0  0  0  0  0
   -0.3466    1.2755   -0.1455 C   0  0  0  0  0  0  0  0  0  0  0  0
    2.8690    0.0275   -1.1188 C   0  0  0  0  0  0  0  0  0  0  0  0
    3.0885    1.0374   -2.0665 C   0  0  0  0  0  0  0  0  0  0  0  0
    4.2286    1.0563   -2.8810 C   0  0  0  0  0  0  0  0  0  0  0  0
    5.2149    0.0853   -2.7443 C   0  0  0  0  0  0  0  0  0  0  0  0
    4.9888   -0.9583   -1.8509 C   0  0  0  0  0  0  0  0  0  0  0  0
    3.8461   -0.9726   -1.0378 C   0  0  0  0  0  0  0  0  0  0  0  0
    6.2833    0.0280   -3.6458 N   0  0  0  0  0  0  0  0  0  0  0  0
   -3.0457   -0.8769    0.2716 H   0  0  0  0  0  0  0  0  0  0  0  0
   -2.6121    0.0308   -1.1869 H   0  0  0  0  0  0  0  0  0  0  0  0
   -3.0457    0.8940    0.2986 H   0  0  0  0  0  0  0  0  0  0  0  0
   -1.0353   -0.0043    1.4425 H   0  0  0  0  0  0  0  0  0  0  0  0
   -0.4816   -1.3262   -1.2588 H   0  0  0  0  0  0  0  0  0  0  0  0
   -0.8121   -2.1489    0.2651 H   0  0  0  0  0  0  0  0  0  0  0  0
    1.5830   -2.1304   -0.3114 H   0  0  0  0  0  0  0  0  0  0  0  0
    1.3049   -1.3155    1.2329 H   0  0  0  0  0  0  0  0  0  0  0  0
    1.6249    2.1441   -0.1832 H   0  0  0  0  0  0  0  0  0  0  0  0
    1.2809    1.2456    1.2790 H   0  0  0  0  0  0  0  0  0  0  0  0
   -0.4683    1.3741   -1.2321 H   0  0  0  0  0  0  0  0  0  0  0  0
   -0.8000    2.1630    0.3110 H   0  0  0  0  0  0  0  0  0  0  0  0
    2.3379    1.8055   -2.2318 H   0  0  0  0  0  0  0  0  0  0  0  0
    4.3242    1.8361   -3.6310 H   0  0  0  0  0  0  0  0  0  0  0  0
    5.6991   -1.7758   -1.7712 H   0  0  0  0  0  0  0  0  0  0  0  0
    3.7450   -1.7883   -0.3283 H   0  0  0  0  0  0  0  0  0  0  0  0
    6.5456    0.9344   -4.0204 H   0  0  0  0  0  0  0  0  0  0  0  0
    7.0821   -0.4904   -3.2956 H   0  0  0  0  0  0  0  0  0  0  0  0
  1  2  1  0  0  0  0
  1 15  1  0  0  0  0
  1 16  1  0  0  0  0
  1 17  1  0  0  0  0
  2  3  1  0  0  0  0
  2  7  1  0  0  0  0
  2 18  1  0  0  0  0
  3  4  1  0  0  0  0
  3 19  1  0  0  0  0
  3 20  1  0  0  0  0
  4  5  1  0  0  0  0
  4 21  1  0  0  0  0
  4 22  1  0  0  0  0
  5  6  1  0  0  0  0
  5  8  1  0  0  0  0
  6  7  1  0  0  0  0
  6 23  1  0  0  0  0
  6 24  1  0  0  0  0
  7 25  1  0  0  0  0
  7 26  1  0  0  0  0
  8  9  2  0  0  0  0
  8 13  1  0  0  0  0
  9 10  1  0  0  0  0
  9 27  1  0  0  0  0
 10 11  2  0  0  0  0
 10 28  1  0  0  0  0
 11 12  1  0  0  0  0
 11 14  1  0  0  0  0
 12 13  2  0  0  0  0
 12 29  1  0  0  0  0
 13 30  1  0  0  0  0
 14 31  1  0  0  0  0
 14 32  1  0  0  0  0
M  END
$$$$
Target_lig_611
 OpenBabel04172516573D

 33 34  0  0  0  0  0  0  0  0999 V2000
    1.3910   -0.2713   -0.0673 C   0  0  0  0  0  0  0  0  0  0  0  0
    0.5198   -1.3420    0.1329 C   0  0  0  0  0  0  0  0  0  0  0  0
   -0.8606   -1.1561    0.0310 C   0  0  0  0  0  0  0  0  0  0  0  0
   -1.3791    0.1030   -0.2729 C   0  0  0  0  0  0  0  0  0  0  0  0
   -0.5015    1.1737   -0.4658 C   0  0  0  0  0  0  0  0  0  0  0  0
    0.8787    0.9890   -0.3645 C   0  0  0  0  0  0  0  0  0  0  0  0
   -2.7043    0.4173   -0.4066 O   0  0  0  0  0  0  0  0  0  0  0  0
   -3.6382   -0.6504   -0.2401 C   0  0  0  0  0  0  0  0  0  0  0  0
   -5.0545   -0.1053   -0.4561 C   0  0  0  0  0  0  0  0  0  0  0  0
   -6.0373   -1.1737   -0.2913 N   0  0  0  0  0  0  0  0  0  0  0  0
   -7.4065   -0.8963   -0.4967 C   0  0  0  0  0  0  0  0  0  0  0  0
   -7.9242    0.3800   -0.7403 C   0  0  0  0  0  0  0  0  0  0  0  0
   -9.2937    0.5647   -0.9535 C   0  0  0  0  0  0  0  0  0  0  0  0
  -10.1640   -0.5221   -0.9112 C   0  0  0  0  0  0  0  0  0  0  0  0
   -9.6709   -1.7972   -0.6391 C   0  0  0  0  0  0  0  0  0  0  0  0
   -8.3114   -1.9819   -0.3744 C   0  0  0  0  0  0  0  0  0  0  0  0
   -7.7959   -3.2912   -0.1908 N   0  0  0  0  0  0  0  0  0  0  0  0
    2.4645   -0.4196    0.0095 H   0  0  0  0  0  0  0  0  0  0  0  0
    0.9182   -2.3255    0.3694 H   0  0  0  0  0  0  0  0  0  0  0  0
   -1.5021   -2.0165    0.1982 H   0  0  0  0  0  0  0  0  0  0  0  0
   -0.8961    2.1598   -0.6978 H   0  0  0  0  0  0  0  0  0  0  0  0
    1.5512    1.8286   -0.5184 H   0  0  0  0  0  0  0  0  0  0  0  0
   -3.5603   -1.0675    0.7720 H   0  0  0  0  0  0  0  0  0  0  0  0
   -3.4445   -1.4400   -0.9768 H   0  0  0  0  0  0  0  0  0  0  0  0
   -5.1196    0.3347   -1.4585 H   0  0  0  0  0  0  0  0  0  0  0  0
   -5.2347    0.6972    0.2699 H   0  0  0  0  0  0  0  0  0  0  0  0
   -5.8246   -1.9995   -0.8557 H   0  0  0  0  0  0  0  0  0  0  0  0
   -7.2771    1.2483   -0.8053 H   0  0  0  0  0  0  0  0  0  0  0  0
   -9.6768    1.5583   -1.1719 H   0  0  0  0  0  0  0  0  0  0  0  0
  -11.2248   -0.3776   -1.0965 H   0  0  0  0  0  0  0  0  0  0  0  0
  -10.3530   -2.6419   -0.6249 H   0  0  0  0  0  0  0  0  0  0  0  0
   -8.4641   -3.8981    0.2733 H   0  0  0  0  0  0  0  0  0  0  0  0
   -6.9288   -3.2238    0.3416 H   0  0  0  0  0  0  0  0  0  0  0  0
  1  2  2  0  0  0  0
  1  6  1  0  0  0  0
  1 18  1  0  0  0  0
  2  3  1  0  0  0  0
  2 19  1  0  0  0  0
  3  4  2  0  0  0  0
  3 20  1  0  0  0  0
  4  5  1  0  0  0  0
  4  7  1  0  0  0  0
  5  6  2  0  0  0  0
  5 21  1  0  0  0  0
  6 22  1  0  0  0  0
  7  8  1  0  0  0  0
  8  9  1  0  0  0  0
  8 23  1  0  0  0  0
  8 24  1  0  0  0  0
  9 10  1  0  0  0  0
  9 25  1  0  0  0  0
  9 26  1  0  0  0  0
 10 11  1  0  0  0  0
 10 27  1  0  0  0  0
 11 12  2  0  0  0  0
 11 16  1  0  0  0  0
 12 13  1  0  0  0  0
 12 28  1  0  0  0  0
 13 14  2  0  0  0  0
 13 29  1  0  0  0  0
 14 15  1  0  0  0  0
 14 30  1  0  0  0  0
 15 16  2  0  0  0  0
 15 31  1  0  0  0  0
 16 17  1  0  0  0  0
 17 32  1  0  0  0  0
 17 33  1  0  0  0  0
M  END
$$$$
Target_lig_612
 OpenBabel04172516573D

 27 28  0  0  0  0  0  0  0  0999 V2000
   -2.4382   -0.7154   -0.0026 C   0  0  0  0  0  0  0  0  0  0  0  0
   -1.2431   -1.4245   -0.0100 C   0  0  0  0  0  0  0  0  0  0  0  0
    0.0059   -0.7520   -0.0012 C   0  0  0  0  0  0  0  0  0  0  0  0
    1.2787   -1.3847   -0.0097 C   0  0  0  0  0  0  0  0  0  0  0  0
    2.4799   -0.6696   -0.0232 C   0  0  0  0  0  0  0  0  0  0  0  0
    2.4303    0.7170   -0.0281 C   0  0  0  0  0  0  0  0  0  0  0  0
    1.1908    1.3740   -0.0237 C   0  0  0  0  0  0  0  0  0  0  0  0
   -0.0282    0.6626    0.0050 C   0  0  0  0  0  0  0  0  0  0  0  0
   -1.2021    1.3386    0.0152 N   0  0  0  0  0  0  0  0  0  0  0  0
   -2.3664    0.6562    0.0131 C   0  0  0  0  0  0  0  0  0  0  0  0
    1.2193    3.1777    0.0319 S   0  0  0  0  0  0  0  0  0  0  0  0
    1.0948    3.6021   -1.7504 C   0  0  0  0  0  0  0  0  0  0  0  0
   -0.1431    3.0675   -2.4673 C   0  0  0  0  0  0  0  0  0  0  0  0
   -1.3398    3.5201   -1.8468 O   0  0  0  0  0  0  0  0  0  0  0  0
    1.3889   -2.8331   -0.0172 N   0  3  0  0  0  0  0  0  0  0  0  0
    0.8871   -3.4497    0.9345 O   0  0  0  0  0  0  0  0  0  0  0  0
    2.0027   -3.3452   -0.9620 O   0  5  0  0  0  0  0  0  0  0  0  0
   -3.3959   -1.2223   -0.0067 H   0  0  0  0  0  0  0  0  0  0  0  0
   -1.3032   -2.5114   -0.0192 H   0  0  0  0  0  0  0  0  0  0  0  0
    3.4404   -1.1797   -0.0209 H   0  0  0  0  0  0  0  0  0  0  0  0
    3.3585    1.2859   -0.0224 H   0  0  0  0  0  0  0  0  0  0  0  0
   -3.2630    1.2695    0.0172 H   0  0  0  0  0  0  0  0  0  0  0  0
    2.0033    3.2700   -2.2621 H   0  0  0  0  0  0  0  0  0  0  0  0
    1.0727    4.6968   -1.7891 H   0  0  0  0  0  0  0  0  0  0  0  0
   -0.1529    1.9748   -2.5182 H   0  0  0  0  0  0  0  0  0  0  0  0
   -0.1514    3.4294   -3.5004 H   0  0  0  0  0  0  0  0  0  0  0  0
   -1.3497    3.0925   -0.9624 H   0  0  0  0  0  0  0  0  0  0  0  0
  1  2  2  0  0  0  0
  1 10  1  0  0  0  0
  1 18  1  0  0  0  0
  2  3  1  0  0  0  0
  2 19  1  0  0  0  0
  3  4  2  0  0  0  0
  3  8  1  0  0  0  0
  4  5  1  0  0  0  0
  4 15  1  0  0  0  0
  5  6  2  0  0  0  0
  5 20  1  0  0  0  0
  6  7  1  0  0  0  0
  6 21  1  0  0  0  0
  7  8  2  0  0  0  0
  7 11  1  0  0  0  0
  8  9  1  0  0  0  0
  9 10  2  0  0  0  0
 10 22  1  0  0  0  0
 11 12  1  0  0  0  0
 12 13  1  0  0  0  0
 12 23  1  0  0  0  0
 12 24  1  0  0  0  0
 13 14  1  0  0  0  0
 13 25  1  0  0  0  0
 13 26  1  0  0  0  0
 14 27  1  0  0  0  0
 15 16  2  0  0  0  0
 15 17  1  0  0  0  0
M  CHG  2  15   1  17  -1
M  END
$$$$
Target_lig_613
 OpenBabel04172516573D

 40 43  0  0  0  0  0  0  0  0999 V2000
   -1.4996   -0.0769    1.4750 C   0  0  0  0  0  0  0  0  0  0  0  0
   -1.4270   -1.0871    0.5168 C   0  0  0  0  0  0  0  0  0  0  0  0
   -0.5384   -0.9694   -0.5480 C   0  0  0  0  0  0  0  0  0  0  0  0
    0.2634    0.1685   -0.6542 C   0  0  0  0  0  0  0  0  0  0  0  0
    0.2113    1.2001    0.3063 C   0  0  0  0  0  0  0  0  0  0  0  0
   -0.6921    1.0603    1.3679 C   0  0  0  0  0  0  0  0  0  0  0  0
    0.9194    2.4887    0.1508 C   0  0  0  0  0  0  0  0  0  0  0  0
    2.1800    2.6481   -0.2609 C   0  0  0  0  0  0  0  0  0  0  0  0
    2.6948    3.9098   -0.8920 C   0  0  0  0  0  0  0  0  0  0  0  0
    2.1131    4.9803   -0.8904 O   0  0  0  0  0  0  0  0  0  0  0  0
    3.7832    3.4846   -1.6397 N   0  0  0  0  0  0  0  0  0  0  0  0
    4.0494    2.1384   -1.3812 C   0  0  0  0  0  0  0  0  0  0  0  0
    4.9040    1.4382   -1.9031 O   0  0  0  0  0  0  0  0  0  0  0  0
    3.1108    1.6790   -0.4799 N   0  0  0  0  0  0  0  0  0  0  0  0
    4.1377    4.0420   -2.8545 C   0  0  0  0  0  0  0  0  0  0  0  0
    4.4131    5.3193   -3.1811 C   0  0  0  0  0  0  0  0  0  0  0  0
    5.0040    6.2011   -2.1502 C   0  0  0  0  0  0  0  0  0  0  0  0
    4.4187    6.9893   -1.4369 O   0  0  0  0  0  0  0  0  0  0  0  0
    6.4476    5.8883   -2.0474 C   0  0  0  0  0  0  0  0  0  0  0  0
    6.9943    5.6827   -0.7868 C   0  0  0  0  0  0  0  0  0  0  0  0
    8.0161    4.7421   -0.6645 C   0  0  0  0  0  0  0  0  0  0  0  0
    8.5063    4.0684   -1.7941 C   0  0  0  0  0  0  0  0  0  0  0  0
    8.0512    4.3930   -3.0719 C   0  0  0  0  0  0  0  0  0  0  0  0
    7.0230    5.3142   -3.1885 C   0  0  0  0  0  0  0  0  0  0  0  0
    6.4286    5.4724   -4.4565 O   0  0  0  0  0  0  0  0  0  0  0  0
    5.0391    5.3762   -4.5166 C   0  0  0  0  0  0  0  0  0  0  0  0
    4.4251    5.2331   -5.5624 O   0  0  0  0  0  0  0  0  0  0  0  0
    1.0959    0.2772   -1.7386 O   0  0  0  0  0  0  0  0  0  0  0  0
   -2.2054   -0.1653    2.2978 H   0  0  0  0  0  0  0  0  0  0  0  0
   -2.0727   -1.9585    0.5905 H   0  0  0  0  0  0  0  0  0  0  0  0
   -0.4999   -1.7587   -1.2934 H   0  0  0  0  0  0  0  0  0  0  0  0
   -0.7879    1.8446    2.1158 H   0  0  0  0  0  0  0  0  0  0  0  0
    0.2803    3.3674    0.2305 H   0  0  0  0  0  0  0  0  0  0  0  0
    2.9402    0.6900   -0.3542 H   0  0  0  0  0  0  0  0  0  0  0  0
    4.2827    3.2721   -3.6163 H   0  0  0  0  0  0  0  0  0  0  0  0
    6.5382    6.1271    0.0946 H   0  0  0  0  0  0  0  0  0  0  0  0
    8.3769    4.4682    0.3241 H   0  0  0  0  0  0  0  0  0  0  0  0
    9.2159    3.2533   -1.6693 H   0  0  0  0  0  0  0  0  0  0  0  0
    8.4073    3.8492   -3.9430 H   0  0  0  0  0  0  0  0  0  0  0  0
    0.9089   -0.4463   -2.3605 H   0  0  0  0  0  0  0  0  0  0  0  0
  1  2  2  0  0  0  0
  1  6  1  0  0  0  0
  1 29  1  0  0  0  0
  2  3  1  0  0  0  0
  2 30  1  0  0  0  0
  3  4  2  0  0  0  0
  3 31  1  0  0  0  0
  4  5  1  0  0  0  0
  4 28  1  0  0  0  0
  5  6  2  0  0  0  0
  5  7  1  0  0  0  0
  6 32  1  0  0  0  0
  7  8  2  0  0  0  0
  7 33  1  0  0  0  0
  8  9  1  0  0  0  0
  8 14  1  0  0  0  0
  9 10  2  0  0  0  0
  9 11  1  0  0  0  0
 11 12  1  0  0  0  0
 11 15  1  0  0  0  0
 12 13  2  0  0  0  0
 12 14  1  0  0  0  0
 14 34  1  0  0  0  0
 15 16  2  0  0  0  0
 15 35  1  0  0  0  0
 16 17  1  0  0  0  0
 16 26  1  0  0  0  0
 17 18  2  0  0  0  0
 17 19  1  0  0  0  0
 19 20  2  0  0  0  0
 19 24  1  0  0  0  0
 20 21  1  0  0  0  0
 20 36  1  0  0  0  0
 21 22  2  0  0  0  0
 21 37  1  0  0  0  0
 22 23  1  0  0  0  0
 22 38  1  0  0  0  0
 23 24  2  0  0  0  0
 23 39  1  0  0  0  0
 24 25  1  0  0  0  0
 25 26  1  0  0  0  0
 26 27  2  0  0  0  0
 28 40  1  0  0  0  0
M  END
$$$$
Target_lig_614
 OpenBabel04172516573D

 47 50  0  0  0  0  0  0  0  0999 V2000
    3.7196    0.6980    0.0162 C   0  0  0  0  0  0  0  0  0  0  0  0
    3.7298   -0.6947    0.0141 C   0  0  0  0  0  0  0  0  0  0  0  0
    2.5255   -1.4015    0.0184 C   0  0  0  0  0  0  0  0  0  0  0  0
    1.3057   -0.7133    0.0203 C   0  0  0  0  0  0  0  0  0  0  0  0
    1.2980    0.6739    0.0209 C   0  0  0  0  0  0  0  0  0  0  0  0
    2.5055    1.3798    0.0235 C   0  0  0  0  0  0  0  0  0  0  0  0
    0.0300    1.4130   -0.0241 C   0  0  0  0  0  0  0  0  0  0  0  0
    0.0687    2.6340   -0.1202 O   0  0  0  0  0  0  0  0  0  0  0  0
   -1.2578    0.6715   -0.0051 C   0  0  0  0  0  0  0  0  0  0  0  0
   -1.2647   -0.7371    0.0055 C   0  0  0  0  0  0  0  0  0  0  0  0
    0.0381   -1.4635   -0.0149 C   0  0  0  0  0  0  0  0  0  0  0  0
    0.0796   -2.6888   -0.0942 O   0  0  0  0  0  0  0  0  0  0  0  0
   -2.4865   -1.4700   -0.0252 C   0  0  0  0  0  0  0  0  0  0  0  0
   -3.6793   -0.7386   -0.0358 C   0  0  0  0  0  0  0  0  0  0  0  0
   -3.6683    0.6585   -0.0448 C   0  0  0  0  0  0  0  0  0  0  0  0
   -2.4699    1.3840   -0.0081 C   0  0  0  0  0  0  0  0  0  0  0  0
   -2.5195    2.7912    0.0766 N   0  0  0  0  0  0  0  0  0  0  0  0
   -3.4713    3.5901    0.7227 C   0  0  0  0  0  0  0  0  0  0  0  0
   -4.1688    3.1042    1.8420 C   0  0  0  0  0  0  0  0  0  0  0  0
   -5.2993    3.7495    2.3118 C   0  0  0  0  0  0  0  0  0  0  0  0
   -5.7166    4.9207    1.6848 C   0  0  0  0  0  0  0  0  0  0  0  0
   -4.9740    5.4861    0.6437 C   0  0  0  0  0  0  0  0  0  0  0  0
   -3.8474    4.8170    0.1675 C   0  0  0  0  0  0  0  0  0  0  0  0
   -7.2727    5.6058    2.1748 S   0  0  0  0  0  0  0  0  0  0  0  0
   -7.7550    6.4561    1.0980 O   0  0  0  0  0  0  0  0  0  0  0  0
   -8.0736    4.5756    2.7636 O   0  0  0  0  0  0  0  0  0  0  0  0
   -6.7442    6.6090    3.3988 N   0  0  0  0  0  0  0  0  0  0  0  0
   -5.2979   -1.4695    0.0032 S   0  0  0  0  0  0  0  0  0  0  0  0
   -5.9458   -0.9705    1.1984 O   0  0  0  0  0  0  0  0  0  0  0  0
   -5.8632   -1.2998   -1.3154 O   0  0  0  0  0  0  0  0  0  0  0  0
   -5.0939   -3.0494    0.2521 O   0  0  0  0  0  0  0  0  0  0  0  0
   -2.4906   -2.8684    0.1532 N   0  0  0  0  0  0  0  0  0  0  0  0
    4.6552    1.2526    0.0077 H   0  0  0  0  0  0  0  0  0  0  0  0
    4.6760   -1.2318    0.0035 H   0  0  0  0  0  0  0  0  0  0  0  0
    2.5458   -2.4900    0.0112 H   0  0  0  0  0  0  0  0  0  0  0  0
    2.5056    2.4724    0.0161 H   0  0  0  0  0  0  0  0  0  0  0  0
   -4.6192    1.1909   -0.0833 H   0  0  0  0  0  0  0  0  0  0  0  0
   -1.9034    3.2681   -0.5806 H   0  0  0  0  0  0  0  0  0  0  0  0
   -3.8589    2.1751    2.3140 H   0  0  0  0  0  0  0  0  0  0  0  0
   -5.8748    3.3088    3.1208 H   0  0  0  0  0  0  0  0  0  0  0  0
   -5.2903    6.4081    0.1605 H   0  0  0  0  0  0  0  0  0  0  0  0
   -3.3048    5.2254   -0.6823 H   0  0  0  0  0  0  0  0  0  0  0  0
   -6.7119    7.5983    3.1874 H   0  0  0  0  0  0  0  0  0  0  0  0
   -6.9258    6.2835    4.3473 H   0  0  0  0  0  0  0  0  0  0  0  0
   -4.9501   -3.1838    1.2143 H   0  0  0  0  0  0  0  0  0  0  0  0
   -1.5649   -3.2912   -0.0219 H   0  0  0  0  0  0  0  0  0  0  0  0
   -3.2130   -3.3616   -0.3773 H   0  0  0  0  0  0  0  0  0  0  0  0
  1  2  2  0  0  0  0
  1  6  1  0  0  0  0
  1 33  1  0  0  0  0
  2  3  1  0  0  0  0
  2 34  1  0  0  0  0
  3  4  2  0  0  0  0
  3 35  1  0  0  0  0
  4  5  1  0  0  0  0
  4 11  1  0  0  0  0
  5  6  2  0  0  0  0
  5  7  1  0  0  0  0
  6 36  1  0  0  0  0
  7  8  2  0  0  0  0
  7  9  1  0  0  0  0
  9 10  2  0  0  0  0
  9 16  1  0  0  0  0
 10 11  1  0  0  0  0
 10 13  1  0  0  0  0
 11 12  2  0  0  0  0
 13 14  2  0  0  0  0
 13 32  1  0  0  0  0
 14 15  1  0  0  0  0
 14 28  1  0  0  0  0
 15 16  2  0  0  0  0
 15 37  1  0  0  0  0
 16 17  1  0  0  0  0
 17 18  1  0  0  0  0
 17 38  1  0  0  0  0
 18 19  2  0  0  0  0
 18 23  1  0  0  0  0
 19 20  1  0  0  0  0
 19 39  1  0  0  0  0
 20 21  2  0  0  0  0
 20 40  1  0  0  0  0
 21 22  1  0  0  0  0
 21 24  1  0  0  0  0
 22 23  2  0  0  0  0
 22 41  1  0  0  0  0
 23 42  1  0  0  0  0
 24 25  2  0  0  0  0
 24 26  2  0  0  0  0
 24 27  1  0  0  0  0
 27 43  1  0  0  0  0
 27 44  1  0  0  0  0
 28 29  2  0  0  0  0
 28 30  2  0  0  0  0
 28 31  1  0  0  0  0
 31 45  1  0  0  0  0
 32 46  1  0  0  0  0
 32 47  1  0  0  0  0
M  END
$$$$
Target_lig_615
 OpenBabel04172516573D

 44 46  0  0  1  0  0  0  0  0999 V2000
   -1.2841    0.8681   -0.0264 C   0  0  0  0  0  0  0  0  0  0  0  0
   -2.4881    1.5450   -0.2400 C   0  0  0  0  0  0  0  0  0  0  0  0
   -3.6990    0.8357   -0.2437 C   0  0  0  0  0  0  0  0  0  0  0  0
   -3.7182   -0.5483   -0.0535 C   0  0  0  0  0  0  0  0  0  0  0  0
   -2.5288   -1.2266    0.1770 C   0  0  0  0  0  0  0  0  0  0  0  0
   -1.3306   -0.5095    0.2035 C   0  0  0  0  0  0  0  0  0  0  0  0
   -0.0866   -1.2072    0.5222 C   0  0  0  0  0  0  0  0  0  0  0  0
   -0.1129   -2.0744    1.3841 O   0  0  0  0  0  0  0  0  0  0  0  0
    1.1224   -0.6448   -0.2012 C   0  0  1  0  0  0  0  0  0  0  0  0
    1.2817    0.7679    0.4054 C   0  0  2  0  0  0  0  0  0  0  0  0
    0.0290    1.5938    0.0030 C   0  0  0  0  0  0  0  0  0  0  0  0
    0.0416    2.8085   -0.2017 O   0  0  0  0  0  0  0  0  0  0  0  0
    2.6543    1.3623    0.0663 C   0  0  0  0  0  0  0  0  0  0  0  0
    3.6874    0.5129   -0.1092 C   0  0  0  0  0  0  0  0  0  0  0  0
    3.5518   -0.9260   -0.0383 C   0  0  0  0  0  0  0  0  0  0  0  0
    2.3526   -1.5295   -0.1195 C   0  0  0  0  0  0  0  0  0  0  0  0
    2.1590   -2.9044   -0.2190 N   0  0  0  0  0  0  0  0  0  0  0  0
    2.7169   -3.8426    0.7761 C   0  0  0  0  0  0  0  0  0  0  0  0
    1.6261   -4.7996    1.2726 C   0  0  0  0  0  0  0  0  0  0  0  0
    1.0532   -5.5095    0.1733 O   0  0  0  0  0  0  0  0  0  0  0  0
    2.8213    2.7414    0.0743 N   0  0  0  0  0  0  0  0  0  0  0  0
    3.4585    3.4992   -1.0121 C   0  0  0  0  0  0  0  0  0  0  0  0
    2.4183    3.9534   -2.0454 C   0  0  0  0  0  0  0  0  0  0  0  0
    1.4445    4.8114   -1.4499 O   0  0  0  0  0  0  0  0  0  0  0  0
   -2.5004    2.6235   -0.3827 H   0  0  0  0  0  0  0  0  0  0  0  0
   -4.6386    1.3670   -0.3870 H   0  0  0  0  0  0  0  0  0  0  0  0
   -4.6589   -1.0953   -0.0656 H   0  0  0  0  0  0  0  0  0  0  0  0
   -2.5279   -2.3028    0.3432 H   0  0  0  0  0  0  0  0  0  0  0  0
    0.8647   -0.5812   -1.2705 H   0  0  0  0  0  0  0  0  0  0  0  0
    1.2404    0.7185    1.5027 H   0  0  0  0  0  0  0  0  0  0  0  0
    4.6941    0.8936   -0.2599 H   0  0  0  0  0  0  0  0  0  0  0  0
    4.4683   -1.5056    0.0137 H   0  0  0  0  0  0  0  0  0  0  0  0
    2.4139   -3.2256   -1.1548 H   0  0  0  0  0  0  0  0  0  0  0  0
    3.1535   -3.3128    1.6291 H   0  0  0  0  0  0  0  0  0  0  0  0
    3.5090   -4.4200    0.2862 H   0  0  0  0  0  0  0  0  0  0  0  0
    0.8231   -4.2699    1.7908 H   0  0  0  0  0  0  0  0  0  0  0  0
    2.0469   -5.5290    1.9704 H   0  0  0  0  0  0  0  0  0  0  0  0
    0.6632   -4.8077   -0.3812 H   0  0  0  0  0  0  0  0  0  0  0  0
    1.9911    3.2377    0.4102 H   0  0  0  0  0  0  0  0  0  0  0  0
    4.2405    2.9125   -1.5066 H   0  0  0  0  0  0  0  0  0  0  0  0
    3.9329    4.3807   -0.5677 H   0  0  0  0  0  0  0  0  0  0  0  0
    1.8979    3.1017   -2.4957 H   0  0  0  0  0  0  0  0  0  0  0  0
    2.9079    4.5161   -2.8461 H   0  0  0  0  0  0  0  0  0  0  0  0
    0.8327    4.2258   -0.9523 H   0  0  0  0  0  0  0  0  0  0  0  0
  1  2  1  0  0  0  0
  1  6  2  0  0  0  0
  1 11  1  0  0  0  0
  2  3  2  0  0  0  0
  2 25  1  0  0  0  0
  3  4  1  0  0  0  0
  3 26  1  0  0  0  0
  4  5  2  0  0  0  0
  4 27  1  0  0  0  0
  5  6  1  0  0  0  0
  5 28  1  0  0  0  0
  6  7  1  0  0  0  0
  7  8  2  0  0  0  0
  7  9  1  0  0  0  0
  9 10  1  0  0  0  0
  9 16  1  0  0  0  0
  9 29  1  6  0  0  0
 10 11  1  0  0  0  0
 10 13  1  0  0  0  0
 10 30  1  1  0  0  0
 11 12  2  0  0  0  0
 13 14  2  0  0  0  0
 13 21  1  0  0  0  0
 14 15  1  0  0  0  0
 14 31  1  0  0  0  0
 15 16  2  0  0  0  0
 15 32  1  0  0  0  0
 16 17  1  0  0  0  0
 17 18  1  0  0  0  0
 17 33  1  0  0  0  0
 18 19  1  0  0  0  0
 18 34  1  0  0  0  0
 18 35  1  0  0  0  0
 19 20  1  0  0  0  0
 19 36  1  0  0  0  0
 19 37  1  0  0  0  0
 20 38  1  0  0  0  0
 21 22  1  0  0  0  0
 21 39  1  0  0  0  0
 22 23  1  0  0  0  0
 22 40  1  0  0  0  0
 22 41  1  0  0  0  0
 23 24  1  0  0  0  0
 23 42  1  0  0  0  0
 23 43  1  0  0  0  0
 24 44  1  0  0  0  0
M  END
$$$$
Target_lig_616
 OpenBabel04172516573D

 44 46  0  0  0  0  0  0  0  0999 V2000
    0.9521   -0.1606   -0.0619 C   0  0  0  0  0  0  0  0  0  0  0  0
    2.4442   -0.0655   -0.0639 C   0  0  0  0  0  0  0  0  0  0  0  0
    3.0964    1.1084   -0.0558 C   0  0  0  0  0  0  0  0  0  0  0  0
    4.5308    1.1627   -0.0525 C   0  0  0  0  0  0  0  0  0  0  0  0
    5.2358    0.0279   -0.0519 C   0  0  0  0  0  0  0  0  0  0  0  0
    4.6217   -1.2193   -0.0618 N   0  0  0  0  0  0  0  0  0  0  0  0
    3.2403   -1.3479   -0.0758 C   0  0  0  0  0  0  0  0  0  0  0  0
    2.6273   -2.4914   -0.0993 N   0  0  0  0  0  0  0  0  0  0  0  0
    3.3493   -3.6668   -0.1039 C   0  0  0  0  0  0  0  0  0  0  0  0
    4.7025   -3.6558   -0.0832 C   0  0  0  0  0  0  0  0  0  0  0  0
    5.4136   -2.3497   -0.0657 C   0  0  0  0  0  0  0  0  0  0  0  0
    6.6504   -2.3320   -0.0602 O   0  0  0  0  0  0  0  0  0  0  0  0
    5.4860   -4.8856   -0.0653 C   0  0  0  0  0  0  0  0  0  0  0  0
    4.9355   -6.1087   -0.0981 C   0  0  0  0  0  0  0  0  0  0  0  0
    3.4203   -6.1310   -0.1007 C   0  0  0  0  0  0  0  0  0  0  0  0
    2.7785   -7.2674   -0.0876 N   0  0  0  0  0  0  0  0  0  0  0  0
    2.6965   -4.9269   -0.1187 N   0  0  0  0  0  0  0  0  0  0  0  0
    1.2224   -4.9946   -0.0446 C   0  0  0  0  0  0  0  0  0  0  0  0
    0.5459   -4.9338   -1.4134 C   0  0  0  0  0  0  0  0  0  0  0  0
    0.8285   -6.1219   -2.3240 C   0  0  0  0  0  0  0  0  0  0  0  0
    0.1200   -5.9517   -3.5537 O   0  0  0  0  0  0  0  0  0  0  0  0
    5.7404   -7.3699   -0.0517 C   0  0  0  0  0  0  0  0  0  0  0  0
    5.2023   -8.4258    0.2778 O   0  0  0  0  0  0  0  0  0  0  0  0
    7.0597   -7.3035   -0.4353 N   0  0  0  0  0  0  0  0  0  0  0  0
    7.8974   -8.4806   -0.4788 C   0  0  0  0  0  0  0  0  0  0  0  0
    0.4841    0.8310   -0.0624 H   0  0  0  0  0  0  0  0  0  0  0  0
    0.5988   -0.6888    0.8286 H   0  0  0  0  0  0  0  0  0  0  0  0
    0.5978   -0.6901   -0.9527 H   0  0  0  0  0  0  0  0  0  0  0  0
    2.5610    2.0540   -0.0502 H   0  0  0  0  0  0  0  0  0  0  0  0
    5.0221    2.1306   -0.0492 H   0  0  0  0  0  0  0  0  0  0  0  0
    6.3231    0.0471   -0.0465 H   0  0  0  0  0  0  0  0  0  0  0  0
    6.5614   -4.7498    0.0015 H   0  0  0  0  0  0  0  0  0  0  0  0
    3.4502   -8.0558   -0.0365 H   0  0  0  0  0  0  0  0  0  0  0  0
    0.8438   -4.1633    0.5641 H   0  0  0  0  0  0  0  0  0  0  0  0
    0.8910   -5.8906    0.4950 H   0  0  0  0  0  0  0  0  0  0  0  0
    0.8104   -4.0075   -1.9362 H   0  0  0  0  0  0  0  0  0  0  0  0
   -0.5396   -4.8794   -1.2543 H   0  0  0  0  0  0  0  0  0  0  0  0
    0.5057   -7.0656   -1.8726 H   0  0  0  0  0  0  0  0  0  0  0  0
    1.8898   -6.1958   -2.5746 H   0  0  0  0  0  0  0  0  0  0  0  0
   -0.8111   -5.7777   -3.3357 H   0  0  0  0  0  0  0  0  0  0  0  0
    7.4529   -6.4462   -0.7952 H   0  0  0  0  0  0  0  0  0  0  0  0
    7.3703   -9.3753   -0.1370 H   0  0  0  0  0  0  0  0  0  0  0  0
    8.7688   -8.3058    0.1577 H   0  0  0  0  0  0  0  0  0  0  0  0
    8.2289   -8.6265   -1.5095 H   0  0  0  0  0  0  0  0  0  0  0  0
  1  2  1  0  0  0  0
  1 26  1  0  0  0  0
  1 27  1  0  0  0  0
  1 28  1  0  0  0  0
  2  3  2  0  0  0  0
  2  7  1  0  0  0  0
  3  4  1  0  0  0  0
  3 29  1  0  0  0  0
  4  5  2  0  0  0  0
  4 30  1  0  0  0  0
  5  6  1  0  0  0  0
  5 31  1  0  0  0  0
  6  7  1  0  0  0  0
  6 11  1  0  0  0  0
  7  8  2  0  0  0  0
  8  9  1  0  0  0  0
  9 10  2  0  0  0  0
  9 17  1  0  0  0  0
 10 11  1  0  0  0  0
 10 13  1  0  0  0  0
 11 12  2  0  0  0  0
 13 14  2  0  0  0  0
 13 32  1  0  0  0  0
 14 15  1  0  0  0  0
 14 22  1  0  0  0  0
 15 16  2  0  0  0  0
 15 17  1  0  0  0  0
 16 33  1  0  0  0  0
 17 18  1  0  0  0  0
 18 19  1  0  0  0  0
 18 34  1  0  0  0  0
 18 35  1  0  0  0  0
 19 20  1  0  0  0  0
 19 36  1  0  0  0  0
 19 37  1  0  0  0  0
 20 21  1  0  0  0  0
 20 38  1  0  0  0  0
 20 39  1  0  0  0  0
 21 40  1  0  0  0  0
 22 23  2  0  0  0  0
 22 24  1  0  0  0  0
 24 25  1  0  0  0  0
 24 41  1  0  0  0  0
 25 42  1  0  0  0  0
 25 43  1  0  0  0  0
 25 44  1  0  0  0  0
M  END
$$$$
Target_lig_617
 OpenBabel04172516573D

 62 66  0  0  0  0  0  0  0  0999 V2000
    0.9969   -0.0088   -0.0727 C   0  0  0  0  0  0  0  0  0  0  0  0
    2.4893    0.0776   -0.0676 C   0  0  0  0  0  0  0  0  0  0  0  0
    3.1428    1.2519   -0.0640 C   0  0  0  0  0  0  0  0  0  0  0  0
    4.5766    1.3038   -0.0657 C   0  0  0  0  0  0  0  0  0  0  0  0
    5.2807    0.1694   -0.0661 C   0  0  0  0  0  0  0  0  0  0  0  0
    4.6677   -1.0750   -0.0662 N   0  0  0  0  0  0  0  0  0  0  0  0
    3.2847   -1.2059   -0.0766 C   0  0  0  0  0  0  0  0  0  0  0  0
    2.6743   -2.3507   -0.0911 N   0  0  0  0  0  0  0  0  0  0  0  0
    3.4029   -3.5242   -0.1151 C   0  0  0  0  0  0  0  0  0  0  0  0
    4.7550   -3.5060   -0.0677 C   0  0  0  0  0  0  0  0  0  0  0  0
    5.4624   -2.2045   -0.0571 C   0  0  0  0  0  0  0  0  0  0  0  0
    6.7021   -2.1779   -0.0427 O   0  0  0  0  0  0  0  0  0  0  0  0
    5.5463   -4.7307   -0.0142 C   0  0  0  0  0  0  0  0  0  0  0  0
    5.0104   -5.9575   -0.0982 C   0  0  0  0  0  0  0  0  0  0  0  0
    3.5010   -5.9779   -0.2892 C   0  0  0  0  0  0  0  0  0  0  0  0
    2.8983   -7.1086   -0.5329 N   0  0  0  0  0  0  0  0  0  0  0  0
    2.7602   -4.7855   -0.1928 N   0  0  0  0  0  0  0  0  0  0  0  0
    1.2967   -4.8683   -0.0279 C   0  0  0  0  0  0  0  0  0  0  0  0
    0.4785   -4.7700   -1.2962 C   0  0  0  0  0  0  0  0  0  0  0  0
   -0.4473   -3.7431   -1.4693 C   0  0  0  0  0  0  0  0  0  0  0  0
   -1.3782   -3.7044   -2.4541 N   0  0  0  0  0  0  0  0  0  0  0  0
   -1.3898   -4.7435   -3.3164 C   0  0  0  0  0  0  0  0  0  0  0  0
   -0.4823   -5.7854   -3.2712 C   0  0  0  0  0  0  0  0  0  0  0  0
    0.4680   -5.7898   -2.2527 C   0  0  0  0  0  0  0  0  0  0  0  0
    5.8162   -7.2222   -0.0403 C   0  0  0  0  0  0  0  0  0  0  0  0
    5.3273   -8.2721   -0.4495 O   0  0  0  0  0  0  0  0  0  0  0  0
    7.0820   -7.1753    0.4975 N   0  0  0  0  0  0  0  0  0  0  0  0
    7.8976   -8.3821    0.5918 C   0  0  0  0  0  0  0  0  0  0  0  0
    8.8706   -8.3863    1.7959 C   0  0  0  0  0  0  0  0  0  0  0  0
    8.2807   -8.1518    3.1181 N   0  0  0  0  0  0  0  0  0  0  0  0
    9.2720   -8.1448    4.2108 C   0  0  0  0  0  0  0  0  0  0  0  0
    9.4050   -9.4555    5.0065 C   0  0  0  0  0  0  0  0  0  0  0  0
    8.1312   -9.8961    5.4793 O   0  0  0  0  0  0  0  0  0  0  0  0
    7.2766  -10.1660    4.3667 C   0  0  0  0  0  0  0  0  0  0  0  0
    7.0797   -8.9257    3.4767 C   0  0  0  0  0  0  0  0  0  0  0  0
    0.5361    0.9855   -0.0760 H   0  0  0  0  0  0  0  0  0  0  0  0
    0.6381   -0.5343    0.8178 H   0  0  0  0  0  0  0  0  0  0  0  0
    0.6452   -0.5356   -0.9644 H   0  0  0  0  0  0  0  0  0  0  0  0
    2.6091    2.1970   -0.0688 H   0  0  0  0  0  0  0  0  0  0  0  0
    5.0736    2.2683   -0.0735 H   0  0  0  0  0  0  0  0  0  0  0  0
    6.3686    0.1878   -0.0698 H   0  0  0  0  0  0  0  0  0  0  0  0
    6.6171   -4.5895    0.0995 H   0  0  0  0  0  0  0  0  0  0  0  0
    3.5949   -7.8726   -0.6126 H   0  0  0  0  0  0  0  0  0  0  0  0
    0.9605   -4.0974    0.6801 H   0  0  0  0  0  0  0  0  0  0  0  0
    1.0154   -5.8045    0.4740 H   0  0  0  0  0  0  0  0  0  0  0  0
   -0.5013   -2.9102   -0.7735 H   0  0  0  0  0  0  0  0  0  0  0  0
   -2.1838   -4.7266   -4.0573 H   0  0  0  0  0  0  0  0  0  0  0  0
   -0.5338   -6.6013   -3.9833 H   0  0  0  0  0  0  0  0  0  0  0  0
    1.1583   -6.6250   -2.1793 H   0  0  0  0  0  0  0  0  0  0  0  0
    7.4948   -6.3123    0.8141 H   0  0  0  0  0  0  0  0  0  0  0  0
    8.4721   -8.4418   -0.3393 H   0  0  0  0  0  0  0  0  0  0  0  0
    7.2576   -9.2693    0.6218 H   0  0  0  0  0  0  0  0  0  0  0  0
    9.5808   -7.5664    1.6150 H   0  0  0  0  0  0  0  0  0  0  0  0
    9.4497   -9.3167    1.7790 H   0  0  0  0  0  0  0  0  0  0  0  0
    8.9524   -7.3665    4.9102 H   0  0  0  0  0  0  0  0  0  0  0  0
   10.2635   -7.8423    3.8502 H   0  0  0  0  0  0  0  0  0  0  0  0
   10.0390   -9.2898    5.8842 H   0  0  0  0  0  0  0  0  0  0  0  0
    9.8662  -10.2513    4.4105 H   0  0  0  0  0  0  0  0  0  0  0  0
    6.3071  -10.4775    4.7720 H   0  0  0  0  0  0  0  0  0  0  0  0
    7.6830  -11.0105    3.7995 H   0  0  0  0  0  0  0  0  0  0  0  0
    6.4411   -8.2289    4.0341 H   0  0  0  0  0  0  0  0  0  0  0  0
    6.4854   -9.2173    2.6066 H   0  0  0  0  0  0  0  0  0  0  0  0
  1  2  1  0  0  0  0
  1 36  1  0  0  0  0
  1 37  1  0  0  0  0
  1 38  1  0  0  0  0
  2  3  2  0  0  0  0
  2  7  1  0  0  0  0
  3  4  1  0  0  0  0
  3 39  1  0  0  0  0
  4  5  2  0  0  0  0
  4 40  1  0  0  0  0
  5  6  1  0  0  0  0
  5 41  1  0  0  0  0
  6  7  1  0  0  0  0
  6 11  1  0  0  0  0
  7  8  2  0  0  0  0
  8  9  1  0  0  0  0
  9 10  2  0  0  0  0
  9 17  1  0  0  0  0
 10 11  1  0  0  0  0
 10 13  1  0  0  0  0
 11 12  2  0  0  0  0
 13 14  2  0  0  0  0
 13 42  1  0  0  0  0
 14 15  1  0  0  0  0
 14 25  1  0  0  0  0
 15 16  2  0  0  0  0
 15 17  1  0  0  0  0
 16 43  1  0  0  0  0
 17 18  1  0  0  0  0
 18 19  1  0  0  0  0
 18 44  1  0  0  0  0
 18 45  1  0  0  0  0
 19 20  2  0  0  0  0
 19 24  1  0  0  0  0
 20 21  1  0  0  0  0
 20 46  1  0  0  0  0
 21 22  2  0  0  0  0
 22 23  1  0  0  0  0
 22 47  1  0  0  0  0
 23 24  2  0  0  0  0
 23 48  1  0  0  0  0
 24 49  1  0  0  0  0
 25 26  2  0  0  0  0
 25 27  1  0  0  0  0
 27 28  1  0  0  0  0
 27 50  1  0  0  0  0
 28 29  1  0  0  0  0
 28 51  1  0  0  0  0
 28 52  1  0  0  0  0
 29 30  1  0  0  0  0
 29 53  1  0  0  0  0
 29 54  1  0  0  0  0
 30 31  1  0  0  0  0
 30 35  1  0  0  0  0
 31 32  1  0  0  0  0
 31 55  1  0  0  0  0
 31 56  1  0  0  0  0
 32 33  1  0  0  0  0
 32 57  1  0  0  0  0
 32 58  1  0  0  0  0
 33 34  1  0  0  0  0
 34 35  1  0  0  0  0
 34 59  1  0  0  0  0
 34 60  1  0  0  0  0
 35 61  1  0  0  0  0
 35 62  1  0  0  0  0
M  END
$$$$
Target_lig_618
 OpenBabel04172516573D

 60 64  0  0  1  0  0  0  0  0999 V2000
   -5.3658   -5.0361    1.3603 C   0  0  0  0  0  0  0  0  0  0  0  0
   -5.1408   -4.6693    2.7922 C   0  0  0  0  0  0  0  0  0  0  0  0
   -6.1305   -4.3020    3.6216 C   0  0  0  0  0  0  0  0  0  0  0  0
   -5.8683   -3.9724    4.9925 C   0  0  0  0  0  0  0  0  0  0  0  0
   -4.6218   -4.0594    5.4693 C   0  0  0  0  0  0  0  0  0  0  0  0
   -3.5592   -4.4528    4.6657 N   0  0  0  0  0  0  0  0  0  0  0  0
   -3.7305   -4.7389    3.3188 C   0  0  0  0  0  0  0  0  0  0  0  0
   -2.7595   -5.0592    2.5190 N   0  0  0  0  0  0  0  0  0  0  0  0
   -1.4700   -5.1372    2.9963 C   0  0  0  0  0  0  0  0  0  0  0  0
   -1.2119   -4.9677    4.3104 C   0  0  0  0  0  0  0  0  0  0  0  0
   -2.3009   -4.5412    5.2243 C   0  0  0  0  0  0  0  0  0  0  0  0
   -2.0362   -4.2638    6.3971 O   0  0  0  0  0  0  0  0  0  0  0  0
    0.1225   -5.1252    4.8480 C   0  0  0  0  0  0  0  0  0  0  0  0
    1.2201   -5.1265    4.0786 C   0  0  0  0  0  0  0  0  0  0  0  0
    0.9587   -5.2603    2.5994 C   0  0  0  0  0  0  0  0  0  0  0  0
    1.9527   -5.2801    1.7569 N   0  0  0  0  0  0  0  0  0  0  0  0
   -0.3669   -5.3845    2.1377 N   0  0  0  0  0  0  0  0  0  0  0  0
   -0.5902   -5.7770    0.7281 C   0  0  0  0  0  0  0  0  0  0  0  0
   -0.0400   -7.1820    0.4127 C   0  0  1  0  0  0  0  0  0  0  0  0
   -0.6357   -8.3020    1.2703 C   0  0  0  0  0  0  0  0  0  0  0  0
   -1.4830   -9.0876    0.2982 C   0  0  0  0  0  0  0  0  0  0  0  0
   -0.7166   -8.9041   -0.9868 C   0  0  0  0  0  0  0  0  0  0  0  0
   -0.3282   -7.5270   -0.9671 O   0  0  0  0  0  0  0  0  0  0  0  0
    2.5772   -5.1634    4.6954 C   0  0  0  0  0  0  0  0  0  0  0  0
    3.4703   -5.8015    4.1432 O   0  0  0  0  0  0  0  0  0  0  0  0
    2.7800   -4.4735    5.8913 N   0  0  0  0  0  0  0  0  0  0  0  0
    4.0738   -4.6466    6.5588 C   0  0  0  0  0  0  0  0  0  0  0  0
    4.0106   -4.3253    8.0693 C   0  0  0  0  0  0  0  0  0  0  0  0
    3.3271   -3.0635    8.4266 N   0  0  0  0  0  0  0  0  0  0  0  0
    2.0153   -3.0131    7.7517 C   0  0  0  0  0  0  0  0  0  0  0  0
    2.0999   -3.2108    6.2282 C   0  0  0  0  0  0  0  0  0  0  0  0
    4.1382   -1.8932    8.0975 C   0  0  0  0  0  0  0  0  0  0  0  0
   -6.4242   -4.9645    1.0861 H   0  0  0  0  0  0  0  0  0  0  0  0
   -5.0463   -6.0667    1.1741 H   0  0  0  0  0  0  0  0  0  0  0  0
   -4.8065   -4.3685    0.6981 H   0  0  0  0  0  0  0  0  0  0  0  0
   -7.1616   -4.2483    3.2838 H   0  0  0  0  0  0  0  0  0  0  0  0
   -6.6909   -3.6643    5.6309 H   0  0  0  0  0  0  0  0  0  0  0  0
   -4.3998   -3.8221    6.5070 H   0  0  0  0  0  0  0  0  0  0  0  0
    0.1999   -5.1766    5.9309 H   0  0  0  0  0  0  0  0  0  0  0  0
    2.8554   -5.2489    2.2565 H   0  0  0  0  0  0  0  0  0  0  0  0
   -0.1284   -5.0393    0.0589 H   0  0  0  0  0  0  0  0  0  0  0  0
   -1.6545   -5.7583    0.4615 H   0  0  0  0  0  0  0  0  0  0  0  0
    1.0496   -7.2001    0.5093 H   0  0  0  0  0  0  0  0  0  0  0  0
   -1.2041   -7.9607    2.1388 H   0  0  0  0  0  0  0  0  0  0  0  0
    0.1766   -8.9352    1.6484 H   0  0  0  0  0  0  0  0  0  0  0  0
   -2.4702   -8.6180    0.2143 H   0  0  0  0  0  0  0  0  0  0  0  0
   -1.6150  -10.1350    0.5806 H   0  0  0  0  0  0  0  0  0  0  0  0
   -1.3134   -9.1140   -1.8775 H   0  0  0  0  0  0  0  0  0  0  0  0
    0.1891   -9.5221   -1.0095 H   0  0  0  0  0  0  0  0  0  0  0  0
    4.7937   -3.9901    6.0551 H   0  0  0  0  0  0  0  0  0  0  0  0
    4.4208   -5.6779    6.4250 H   0  0  0  0  0  0  0  0  0  0  0  0
    5.0219   -4.3421    8.4945 H   0  0  0  0  0  0  0  0  0  0  0  0
    3.4699   -5.1410    8.5692 H   0  0  0  0  0  0  0  0  0  0  0  0
    1.5072   -2.0685    7.9791 H   0  0  0  0  0  0  0  0  0  0  0  0
    1.3817   -3.8028    8.1774 H   0  0  0  0  0  0  0  0  0  0  0  0
    2.6731   -2.4062    5.7549 H   0  0  0  0  0  0  0  0  0  0  0  0
    1.1018   -3.1343    5.8006 H   0  0  0  0  0  0  0  0  0  0  0  0
    5.0722   -1.9038    8.6717 H   0  0  0  0  0  0  0  0  0  0  0  0
    3.6095   -0.9739    8.3750 H   0  0  0  0  0  0  0  0  0  0  0  0
    4.3977   -1.8256    7.0353 H   0  0  0  0  0  0  0  0  0  0  0  0
  1  2  1  0  0  0  0
  1 33  1  0  0  0  0
  1 34  1  0  0  0  0
  1 35  1  0  0  0  0
  2  3  2  0  0  0  0
  2  7  1  0  0  0  0
  3  4  1  0  0  0  0
  3 36  1  0  0  0  0
  4  5  2  0  0  0  0
  4 37  1  0  0  0  0
  5  6  1  0  0  0  0
  5 38  1  0  0  0  0
  6  7  1  0  0  0  0
  6 11  1  0  0  0  0
  7  8  2  0  0  0  0
  8  9  1  0  0  0  0
  9 10  2  0  0  0  0
  9 17  1  0  0  0  0
 10 11  1  0  0  0  0
 10 13  1  0  0  0  0
 11 12  2  0  0  0  0
 13 14  2  0  0  0  0
 13 39  1  0  0  0  0
 14 15  1  0  0  0  0
 14 24  1  0  0  0  0
 15 16  2  0  0  0  0
 15 17  1  0  0  0  0
 16 40  1  0  0  0  0
 17 18  1  0  0  0  0
 18 41  1  0  0  0  0
 18 42  1  0  0  0  0
 19 20  1  0  0  0  0
 19 23  1  0  0  0  0
 19 18  1  0  0  0  0
 19 43  1  1  0  0  0
 20 21  1  0  0  0  0
 20 44  1  0  0  0  0
 20 45  1  0  0  0  0
 21 22  1  0  0  0  0
 21 46  1  0  0  0  0
 21 47  1  0  0  0  0
 22 23  1  0  0  0  0
 22 48  1  0  0  0  0
 22 49  1  0  0  0  0
 24 25  2  0  0  0  0
 24 26  1  0  0  0  0
 26 27  1  0  0  0  0
 26 31  1  0  0  0  0
 27 28  1  0  0  0  0
 27 50  1  0  0  0  0
 27 51  1  0  0  0  0
 28 29  1  0  0  0  0
 28 52  1  0  0  0  0
 28 53  1  0  0  0  0
 29 30  1  0  0  0  0
 29 32  1  0  0  0  0
 30 31  1  0  0  0  0
 30 54  1  0  0  0  0
 30 55  1  0  0  0  0
 31 56  1  0  0  0  0
 31 57  1  0  0  0  0
 32 58  1  0  0  0  0
 32 59  1  0  0  0  0
 32 60  1  0  0  0  0
M  END
$$$$
Target_lig_619
 OpenBabel04172516573D

 52 57  0  0  0  0  0  0  0  0999 V2000
    1.3239   -0.1593    0.3361 C   0  0  0  0  0  0  0  0  0  0  0  0
    0.4564   -0.8501    1.1828 C   0  0  0  0  0  0  0  0  0  0  0  0
   -0.8748   -0.4521    1.2995 C   0  0  0  0  0  0  0  0  0  0  0  0
   -1.3425    0.6125    0.5200 C   0  0  0  0  0  0  0  0  0  0  0  0
   -0.4561    1.3476   -0.2775 C   0  0  0  0  0  0  0  0  0  0  0  0
    0.8777    0.9591   -0.3665 C   0  0  0  0  0  0  0  0  0  0  0  0
   -2.7344    0.8387    0.3974 N   0  0  0  0  0  0  0  0  0  0  0  0
   -3.7362    0.3732    1.2031 C   0  0  0  0  0  0  0  0  0  0  0  0
   -4.9080    0.5110    0.4890 C   0  0  0  0  0  0  0  0  0  0  0  0
   -4.5382    1.1728   -0.7087 C   0  0  0  0  0  0  0  0  0  0  0  0
   -3.2293    1.4798   -0.6843 N   0  0  0  0  0  0  0  0  0  0  0  0
   -5.4242    1.6907   -1.7289 C   0  0  0  0  0  0  0  0  0  0  0  0
   -5.2165    2.9436   -2.1583 C   0  0  0  0  0  0  0  0  0  0  0  0
   -5.7983    3.8441   -1.1362 C   0  0  0  0  0  0  0  0  0  0  0  0
   -7.0544    3.5321   -0.6259 C   0  0  0  0  0  0  0  0  0  0  0  0
   -7.6302    4.3267    0.3542 C   0  0  0  0  0  0  0  0  0  0  0  0
   -7.0088    5.5453    0.6803 C   0  0  0  0  0  0  0  0  0  0  0  0
   -5.7459    5.8969    0.1298 C   0  0  0  0  0  0  0  0  0  0  0  0
   -5.0821    7.1389    0.2479 C   0  0  0  0  0  0  0  0  0  0  0  0
   -3.7677    7.3049   -0.2377 C   0  0  0  0  0  0  0  0  0  0  0  0
   -3.0348    6.1925   -0.6073 C   0  0  0  0  0  0  0  0  0  0  0  0
   -3.6822    4.9776   -0.6662 C   0  0  0  0  0  0  0  0  0  0  0  0
   -5.0774    4.9066   -0.5808 C   0  0  0  0  0  0  0  0  0  0  0  0
   -7.6760    2.3413   -1.0402 O   0  0  0  0  0  0  0  0  0  0  0  0
   -6.8808    1.3967   -1.7036 C   0  0  0  0  0  0  0  0  0  0  0  0
   -7.3443    0.3884   -2.2232 O   0  0  0  0  0  0  0  0  0  0  0  0
   -6.1821    0.1265    0.9801 C   0  0  0  0  0  0  0  0  0  0  0  0
   -6.4825   -1.0559    1.5303 C   0  0  0  0  0  0  0  0  0  0  0  0
   -7.7270   -1.1319    2.3453 C   0  0  0  0  0  0  0  0  0  0  0  0
   -8.7285   -0.4666    2.1120 O   0  0  0  0  0  0  0  0  0  0  0  0
   -7.5992   -1.9576    3.4086 N   0  0  0  0  0  0  0  0  0  0  0  0
   -6.4831   -2.6509    3.7876 C   0  0  0  0  0  0  0  0  0  0  0  0
   -6.3696   -3.4132    5.2630 S   0  0  0  0  0  0  0  0  0  0  0  0
   -5.4671   -2.7087    2.8895 N   0  0  0  0  0  0  0  0  0  0  0  0
   -5.4720   -2.1336    1.6483 C   0  0  0  0  0  0  0  0  0  0  0  0
   -4.6935   -2.4564    0.7690 O   0  0  0  0  0  0  0  0  0  0  0  0
    2.3465   -0.5043    0.2097 H   0  0  0  0  0  0  0  0  0  0  0  0
    0.8054   -1.7307    1.7156 H   0  0  0  0  0  0  0  0  0  0  0  0
   -1.5368   -1.0474    1.9217 H   0  0  0  0  0  0  0  0  0  0  0  0
   -0.8023    2.1995   -0.8596 H   0  0  0  0  0  0  0  0  0  0  0  0
    1.5562    1.5025   -1.0183 H   0  0  0  0  0  0  0  0  0  0  0  0
   -3.5357   -0.0478    2.1755 H   0  0  0  0  0  0  0  0  0  0  0  0
   -4.2169    3.2615   -2.4552 H   0  0  0  0  0  0  0  0  0  0  0  0
   -8.5448    4.0120    0.8487 H   0  0  0  0  0  0  0  0  0  0  0  0
   -7.4758    6.1948    1.4160 H   0  0  0  0  0  0  0  0  0  0  0  0
   -5.5884    7.9962    0.6755 H   0  0  0  0  0  0  0  0  0  0  0  0
   -3.2915    8.2801   -0.2478 H   0  0  0  0  0  0  0  0  0  0  0  0
   -1.9774    6.2428   -0.8488 H   0  0  0  0  0  0  0  0  0  0  0  0
   -3.0954    4.0624   -0.7246 H   0  0  0  0  0  0  0  0  0  0  0  0
   -6.9513    0.9017    1.0028 H   0  0  0  0  0  0  0  0  0  0  0  0
   -8.3918   -1.9649    4.0528 H   0  0  0  0  0  0  0  0  0  0  0  0
   -4.6869   -3.3282    3.0775 H   0  0  0  0  0  0  0  0  0  0  0  0
  1  2  2  0  0  0  0
  1  6  1  0  0  0  0
  1 37  1  0  0  0  0
  2  3  1  0  0  0  0
  2 38  1  0  0  0  0
  3  4  2  0  0  0  0
  3 39  1  0  0  0  0
  4  5  1  0  0  0  0
  4  7  1  0  0  0  0
  5  6  2  0  0  0  0
  5 40  1  0  0  0  0
  6 41  1  0  0  0  0
  7  8  1  0  0  0  0
  7 11  1  0  0  0  0
  8  9  2  0  0  0  0
  8 42  1  0  0  0  0
  9 10  1  0  0  0  0
  9 27  1  0  0  0  0
 10 11  2  0  0  0  0
 10 12  1  0  0  0  0
 12 13  2  0  0  0  0
 12 25  1  0  0  0  0
 13 14  1  0  0  0  0
 13 43  1  0  0  0  0
 14 15  2  0  0  0  0
 14 23  1  0  0  0  0
 15 16  1  0  0  0  0
 15 24  1  0  0  0  0
 16 17  2  0  0  0  0
 16 44  1  0  0  0  0
 17 18  1  0  0  0  0
 17 45  1  0  0  0  0
 18 19  2  0  0  0  0
 18 23  1  0  0  0  0
 19 20  1  0  0  0  0
 19 46  1  0  0  0  0
 20 21  2  0  0  0  0
 20 47  1  0  0  0  0
 21 22  1  0  0  0  0
 21 48  1  0  0  0  0
 22 23  2  0  0  0  0
 22 49  1  0  0  0  0
 24 25  1  0  0  0  0
 25 26  2  0  0  0  0
 27 28  2  0  0  0  0
 27 50  1  0  0  0  0
 28 29  1  0  0  0  0
 28 35  1  0  0  0  0
 29 30  2  0  0  0  0
 29 31  1  0  0  0  0
 31 32  1  0  0  0  0
 31 51  1  0  0  0  0
 32 33  2  0  0  0  0
 32 34  1  0  0  0  0
 34 35  1  0  0  0  0
 34 52  1  0  0  0  0
 35 36  2  0  0  0  0
M  END
$$$$
Target_lig_620
 OpenBabel04172516573D

 52 55  0  0  0  0  0  0  0  0999 V2000
    2.9080    0.1674    1.2564 C   0  0  0  0  0  0  0  0  0  0  0  0
    1.6606    0.0241    0.5136 N   0  0  0  0  0  0  0  0  0  0  0  0
    0.9359   -1.1917    0.9204 C   0  0  0  0  0  0  0  0  0  0  0  0
   -0.4032   -1.3248    0.1619 C   0  0  0  0  0  0  0  0  0  0  0  0
   -1.3263   -0.1844    0.3593 N   0  0  0  0  0  0  0  0  0  0  0  0
   -0.5858    1.0475   -0.0104 C   0  0  0  0  0  0  0  0  0  0  0  0
    0.8012    1.2130    0.6666 C   0  0  0  0  0  0  0  0  0  0  0  0
   -1.8814   -0.1051    1.7237 C   0  0  0  0  0  0  0  0  0  0  0  0
   -2.7403   -1.3285    2.0931 C   0  0  0  0  0  0  0  0  0  0  0  0
   -3.3152   -1.2254    3.5168 C   0  0  0  0  0  0  0  0  0  0  0  0
   -4.0806   -2.4416    3.8912 N   0  0  0  0  0  0  0  0  0  0  0  0
   -3.6514   -3.2152    4.9969 C   0  0  0  0  0  0  0  0  0  0  0  0
   -3.0877   -2.6185    6.1369 C   0  0  0  0  0  0  0  0  0  0  0  0
   -2.7969   -3.3631    7.2855 C   0  0  0  0  0  0  0  0  0  0  0  0
   -3.0567   -4.7272    7.3147 C   0  0  0  0  0  0  0  0  0  0  0  0
   -3.5938   -5.3529    6.1958 C   0  0  0  0  0  0  0  0  0  0  0  0
   -3.8935   -4.6070    5.0399 C   0  0  0  0  0  0  0  0  0  0  0  0
   -4.5804   -5.4835    3.6444 S   0  0  0  0  0  0  0  0  0  0  0  0
   -5.5243   -4.1691    2.8957 C   0  0  0  0  0  0  0  0  0  0  0  0
   -5.1912   -2.8144    3.0985 C   0  0  0  0  0  0  0  0  0  0  0  0
   -6.0383   -1.8448    2.5387 C   0  0  0  0  0  0  0  0  0  0  0  0
   -7.1319   -2.1896    1.7275 C   0  0  0  0  0  0  0  0  0  0  0  0
   -7.4048   -3.5415    1.4966 C   0  0  0  0  0  0  0  0  0  0  0  0
   -6.6108   -4.5233    2.0832 C   0  0  0  0  0  0  0  0  0  0  0  0
   -7.9888   -1.1151    1.1068 C   0  0  0  0  0  0  0  0  0  0  0  0
   -7.6214    0.1469    1.4630 F   0  0  0  0  0  0  0  0  0  0  0  0
   -7.9445   -1.1446   -0.2545 F   0  0  0  0  0  0  0  0  0  0  0  0
   -9.3034   -1.2289    1.4419 F   0  0  0  0  0  0  0  0  0  0  0  0
    3.5456   -0.7122    1.1101 H   0  0  0  0  0  0  0  0  0  0  0  0
    2.7395    0.2936    2.3318 H   0  0  0  0  0  0  0  0  0  0  0  0
    3.4746    1.0303    0.8907 H   0  0  0  0  0  0  0  0  0  0  0  0
    0.7548   -1.1955    2.0029 H   0  0  0  0  0  0  0  0  0  0  0  0
    1.5456   -2.0745    0.6950 H   0  0  0  0  0  0  0  0  0  0  0  0
   -0.8815   -2.2757    0.4134 H   0  0  0  0  0  0  0  0  0  0  0  0
   -0.1897   -1.4060   -0.9136 H   0  0  0  0  0  0  0  0  0  0  0  0
   -1.2000    1.9356    0.1824 H   0  0  0  0  0  0  0  0  0  0  0  0
   -0.4345    1.0306   -1.0992 H   0  0  0  0  0  0  0  0  0  0  0  0
    0.6554    1.4490    1.7279 H   0  0  0  0  0  0  0  0  0  0  0  0
    1.3023    2.0762    0.2097 H   0  0  0  0  0  0  0  0  0  0  0  0
   -2.5297    0.7822    1.7786 H   0  0  0  0  0  0  0  0  0  0  0  0
   -1.0969    0.0395    2.4742 H   0  0  0  0  0  0  0  0  0  0  0  0
   -2.1437   -2.2452    2.0482 H   0  0  0  0  0  0  0  0  0  0  0  0
   -3.5404   -1.4307    1.3515 H   0  0  0  0  0  0  0  0  0  0  0  0
   -3.9353   -0.3305    3.6306 H   0  0  0  0  0  0  0  0  0  0  0  0
   -2.4545   -1.0769    4.1789 H   0  0  0  0  0  0  0  0  0  0  0  0
   -2.9297   -1.5457    6.1830 H   0  0  0  0  0  0  0  0  0  0  0  0
   -2.3965   -2.8638    8.1622 H   0  0  0  0  0  0  0  0  0  0  0  0
   -2.8549   -5.3023    8.2166 H   0  0  0  0  0  0  0  0  0  0  0  0
   -3.7959   -6.4196    6.2264 H   0  0  0  0  0  0  0  0  0  0  0  0
   -5.8666   -0.7905    2.7515 H   0  0  0  0  0  0  0  0  0  0  0  0
   -8.2416   -3.8341    0.8625 H   0  0  0  0  0  0  0  0  0  0  0  0
   -6.8442   -5.5736    1.9051 H   0  0  0  0  0  0  0  0  0  0  0  0
  1  2  1  0  0  0  0
  1 29  1  0  0  0  0
  1 30  1  0  0  0  0
  1 31  1  0  0  0  0
  2  3  1  0  0  0  0
  2  7  1  0  0  0  0
  3  4  1  0  0  0  0
  3 32  1  0  0  0  0
  3 33  1  0  0  0  0
  4  5  1  0  0  0  0
  4 34  1  0  0  0  0
  4 35  1  0  0  0  0
  5  6  1  0  0  0  0
  5  8  1  0  0  0  0
  6  7  1  0  0  0  0
  6 36  1  0  0  0  0
  6 37  1  0  0  0  0
  7 38  1  0  0  0  0
  7 39  1  0  0  0  0
  8  9  1  0  0  0  0
  8 40  1  0  0  0  0
  8 41  1  0  0  0  0
  9 10  1  0  0  0  0
  9 42  1  0  0  0  0
  9 43  1  0  0  0  0
 10 11  1  0  0  0  0
 10 44  1  0  0  0  0
 10 45  1  0  0  0  0
 11 12  1  0  0  0  0
 11 20  1  0  0  0  0
 12 13  2  0  0  0  0
 12 17  1  0  0  0  0
 13 14  1  0  0  0  0
 13 46  1  0  0  0  0
 14 15  2  0  0  0  0
 14 47  1  0  0  0  0
 15 16  1  0  0  0  0
 15 48  1  0  0  0  0
 16 17  2  0  0  0  0
 16 49  1  0  0  0  0
 17 18  1  0  0  0  0
 18 19  1  0  0  0  0
 19 20  2  0  0  0  0
 19 24  1  0  0  0  0
 20 21  1  0  0  0  0
 21 22  2  0  0  0  0
 21 50  1  0  0  0  0
 22 23  1  0  0  0  0
 22 25  1  0  0  0  0
 23 24  2  0  0  0  0
 23 51  1  0  0  0  0
 24 52  1  0  0  0  0
 25 26  1  0  0  0  0
 25 27  1  0  0  0  0
 25 28  1  0  0  0  0
M  END
$$$$
Target_lig_649
 OpenBabel04172516573D

 76 78  0  0  0  0  0  0  0  0999 V2000
    1.8700    2.7739   -2.5479 N   0  0  0  0  0  0  0  0  0  0  0  0
    3.1643    2.3716   -2.7848 C   0  0  0  0  0  0  0  0  0  0  0  0
    3.4248    1.0725   -2.9987 N   0  0  0  0  0  0  0  0  0  0  0  0
    4.7083    0.7719   -3.2689 C   0  0  0  0  0  0  0  0  0  0  0  0
    5.0552   -0.5452   -3.4843 N   0  0  0  0  0  0  0  0  0  0  0  0
    5.6724    1.6886   -3.3119 N   0  3  0  0  0  0  0  0  0  0  0  0
    5.3519    2.9559   -3.0804 C   0  0  0  0  0  0  0  0  0  0  0  0
    6.3609    3.8851   -3.1101 N   0  0  0  0  0  0  0  0  0  0  0  0
    6.0310    5.2804   -2.8548 C   0  0  0  0  0  0  0  0  0  0  0  0
    7.2846    6.1748   -2.9322 C   0  0  0  0  0  0  0  0  0  0  0  0
    7.0071    7.6698   -2.6624 C   0  0  0  0  0  0  0  0  0  0  0  0
    6.4553    7.9315   -1.2561 C   0  0  0  0  0  0  0  0  0  0  0  0
    6.1790    9.3643   -1.0475 N   0  0  0  0  0  0  0  0  0  0  0  0
    5.6888    9.8707    0.1044 C   0  0  0  0  0  0  0  0  0  0  0  0
    5.7895    9.2769    1.2987 N   0  3  0  0  0  0  0  0  0  0  0  0
    4.8868   11.1329    0.0399 C   0  0  0  0  0  0  0  0  0  0  0  0
    3.8367   11.3860    0.9389 C   0  0  0  0  0  0  0  0  0  0  0  0
    3.0824   12.5848    0.8858 C   0  0  0  0  0  0  0  0  0  0  0  0
    3.3160   13.5851   -0.0790 C   0  0  0  0  0  0  0  0  0  0  0  0
    4.3715   13.3150   -0.9731 C   0  0  0  0  0  0  0  0  0  0  0  0
    5.1295   12.1207   -0.9209 C   0  0  0  0  0  0  0  0  0  0  0  0
    2.5464   14.8968   -0.1061 C   0  0  0  0  0  0  0  0  0  0  0  0
    1.6572   15.1700    0.8401 N   0  3  0  0  0  0  0  0  0  0  0  0
    2.8237   15.8289   -1.0171 N   0  0  0  0  0  0  0  0  0  0  0  0
    2.6644   17.2816   -0.8194 C   0  0  0  0  0  0  0  0  0  0  0  0
    2.3603   17.9884   -2.1335 C   0  0  0  0  0  0  0  0  0  0  0  0
    2.1923   19.5051   -1.9405 C   0  0  0  0  0  0  0  0  0  0  0  0
    3.4557   20.1912   -1.3959 C   0  0  0  0  0  0  0  0  0  0  0  0
    3.2181   21.6216   -1.2613 N   0  0  0  0  0  0  0  0  0  0  0  0
    4.2605   22.3662   -0.7326 C   0  0  0  0  0  0  0  0  0  0  0  0
    4.0326   23.6649   -0.5851 N   0  3  0  0  0  0  0  0  0  0  0  0
    4.9678   24.4156   -0.0446 C   0  0  0  0  0  0  0  0  0  0  0  0
    4.7104   25.7494    0.1372 N   0  0  0  0  0  0  0  0  0  0  0  0
    6.1492   23.9285    0.3249 N   0  0  0  0  0  0  0  0  0  0  0  0
    6.3376   22.6297    0.1561 C   0  0  0  0  0  0  0  0  0  0  0  0
    7.5419   22.1196    0.5524 N   0  0  0  0  0  0  0  0  0  0  0  0
    5.4344   21.8089   -0.3698 N   0  0  0  0  0  0  0  0  0  0  0  0
    4.0955    3.3327   -2.7903 N   0  0  0  0  0  0  0  0  0  0  0  0
    1.1921    2.0490   -2.3556 H   0  0  0  0  0  0  0  0  0  0  0  0
    1.7147    3.7133   -2.2121 H   0  0  0  0  0  0  0  0  0  0  0  0
    4.2991   -1.2274   -3.4712 H   0  0  0  0  0  0  0  0  0  0  0  0
    5.9637   -0.9049   -3.7418 H   0  0  0  0  0  0  0  0  0  0  0  0
    6.6273    1.4372   -3.5032 H   0  0  0  0  0  0  0  0  0  0  0  0
    7.3203    3.6752   -3.3496 H   0  0  0  0  0  0  0  0  0  0  0  0
    5.5964    5.3696   -1.8531 H   0  0  0  0  0  0  0  0  0  0  0  0
    5.2947    5.6426   -3.5821 H   0  0  0  0  0  0  0  0  0  0  0  0
    7.7370    6.0744   -3.9283 H   0  0  0  0  0  0  0  0  0  0  0  0
    8.0375    5.8196   -2.2175 H   0  0  0  0  0  0  0  0  0  0  0  0
    6.3166    8.0572   -3.4233 H   0  0  0  0  0  0  0  0  0  0  0  0
    7.9413    8.2350   -2.7880 H   0  0  0  0  0  0  0  0  0  0  0  0
    7.1525    7.5782   -0.4958 H   0  0  0  0  0  0  0  0  0  0  0  0
    5.4998    7.4071   -1.1398 H   0  0  0  0  0  0  0  0  0  0  0  0
    6.3346    9.9982   -1.8272 H   0  0  0  0  0  0  0  0  0  0  0  0
    6.3671    8.4751    1.5365 H   0  0  0  0  0  0  0  0  0  0  0  0
    5.4237    9.7402    2.1344 H   0  0  0  0  0  0  0  0  0  0  0  0
    3.5680   10.6623    1.7080 H   0  0  0  0  0  0  0  0  0  0  0  0
    2.3135   12.7024    1.6498 H   0  0  0  0  0  0  0  0  0  0  0  0
    4.6653   14.0410   -1.7292 H   0  0  0  0  0  0  0  0  0  0  0  0
    5.9375   12.0200   -1.6428 H   0  0  0  0  0  0  0  0  0  0  0  0
    1.4085   14.4999    1.5563 H   0  0  0  0  0  0  0  0  0  0  0  0
    1.0721   15.9915    0.8268 H   0  0  0  0  0  0  0  0  0  0  0  0
    3.2438   15.5313   -1.8918 H   0  0  0  0  0  0  0  0  0  0  0  0
    3.6085   17.6485   -0.4014 H   0  0  0  0  0  0  0  0  0  0  0  0
    1.8742   17.4899   -0.0974 H   0  0  0  0  0  0  0  0  0  0  0  0
    1.4380   17.5729   -2.5599 H   0  0  0  0  0  0  0  0  0  0  0  0
    3.1545   17.7940   -2.8640 H   0  0  0  0  0  0  0  0  0  0  0  0
    1.3491   19.6920   -1.2626 H   0  0  0  0  0  0  0  0  0  0  0  0
    1.9182   19.9589   -2.9016 H   0  0  0  0  0  0  0  0  0  0  0  0
    4.2942   19.9980   -2.0755 H   0  0  0  0  0  0  0  0  0  0  0  0
    3.6996   19.7779   -0.4110 H   0  0  0  0  0  0  0  0  0  0  0  0
    2.8392   22.0401   -2.1091 H   0  0  0  0  0  0  0  0  0  0  0  0
    3.1405   24.0549   -0.8443 H   0  0  0  0  0  0  0  0  0  0  0  0
    3.7918   26.1689    0.1226 H   0  0  0  0  0  0  0  0  0  0  0  0
    5.4045   26.2321    0.7048 H   0  0  0  0  0  0  0  0  0  0  0  0
    8.2654   22.8145    0.7110 H   0  0  0  0  0  0  0  0  0  0  0  0
    7.8277   21.2544    0.1220 H   0  0  0  0  0  0  0  0  0  0  0  0
  1  2  1  0  0  0  0
  1 39  1  0  0  0  0
  1 40  1  0  0  0  0
  2  3  2  0  0  0  0
  2 38  1  0  0  0  0
  3  4  1  0  0  0  0
  4  5  1  0  0  0  0
  4  6  2  0  0  0  0
  5 41  1  0  0  0  0
  5 42  1  0  0  0  0
  6  7  1  0  0  0  0
  6 43  1  0  0  0  0
  7  8  1  0  0  0  0
  7 38  2  0  0  0  0
  8  9  1  0  0  0  0
  8 44  1  0  0  0  0
  9 10  1  0  0  0  0
  9 45  1  0  0  0  0
  9 46  1  0  0  0  0
 10 11  1  0  0  0  0
 10 47  1  0  0  0  0
 10 48  1  0  0  0  0
 11 12  1  0  0  0  0
 11 49  1  0  0  0  0
 11 50  1  0  0  0  0
 12 13  1  0  0  0  0
 12 51  1  0  0  0  0
 12 52  1  0  0  0  0
 13 14  1  0  0  0  0
 13 53  1  0  0  0  0
 14 15  2  0  0  0  0
 14 16  1  0  0  0  0
 15 54  1  0  0  0  0
 15 55  1  0  0  0  0
 16 17  2  0  0  0  0
 16 21  1  0  0  0  0
 17 18  1  0  0  0  0
 17 56  1  0  0  0  0
 18 19  2  0  0  0  0
 18 57  1  0  0  0  0
 19 20  1  0  0  0  0
 19 22  1  0  0  0  0
 20 21  2  0  0  0  0
 20 58  1  0  0  0  0
 21 59  1  0  0  0  0
 22 23  2  0  0  0  0
 22 24  1  0  0  0  0
 23 60  1  0  0  0  0
 23 61  1  0  0  0  0
 24 25  1  0  0  0  0
 24 62  1  0  0  0  0
 25 26  1  0  0  0  0
 25 63  1  0  0  0  0
 25 64  1  0  0  0  0
 26 27  1  0  0  0  0
 26 65  1  0  0  0  0
 26 66  1  0  0  0  0
 27 28  1  0  0  0  0
 27 67  1  0  0  0  0
 27 68  1  0  0  0  0
 28 29  1  0  0  0  0
 28 69  1  0  0  0  0
 28 70  1  0  0  0  0
 29 30  1  0  0  0  0
 29 71  1  0  0  0  0
 30 31  2  0  0  0  0
 30 37  1  0  0  0  0
 31 32  1  0  0  0  0
 31 72  1  0  0  0  0
 32 33  1  0  0  0  0
 32 34  2  0  0  0  0
 33 73  1  0  0  0  0
 33 74  1  0  0  0  0
 34 35  1  0  0  0  0
 35 36  1  0  0  0  0
 35 37  2  0  0  0  0
 36 75  1  0  0  0  0
 36 76  1  0  0  0  0
M  CHG  4   6   1  15   1  23   1  31   1
M  END
$$$$
Target_lig_653
 OpenBabel04172516573D

196203  0  0  1  0  0  0  0  0999 V2000
   26.3837    4.1319   -1.6562 C   0  0  0  0  0  0  0  0  0  0  0  0
   24.8668    4.1986   -1.8646 C   0  0  0  0  0  0  0  0  0  0  0  0
   24.4640    4.5124   -3.2884 C   0  0  0  0  0  0  0  0  0  0  0  0
   23.2272    5.0671   -3.6544 C   0  0  0  0  0  0  0  0  0  0  0  0
   22.9598    5.1763   -5.0299 C   0  0  0  0  0  0  0  0  0  0  0  0
   23.8725    4.6772   -5.9859 C   0  0  0  0  0  0  0  0  0  0  0  0
   23.5902    4.6147   -7.3659 C   0  0  0  0  0  0  0  0  0  0  0  0
   24.4186    3.8819   -8.2384 C   0  0  0  0  0  0  0  0  0  0  0  0
   24.0697    3.6415   -9.5785 C   0  0  0  0  0  0  0  0  0  0  0  0
   24.8494    2.8028  -10.3812 C   0  0  0  0  0  0  0  0  0  0  0  0
   26.0154    2.2362   -9.8746 C   0  0  0  0  0  0  0  0  0  0  0  0
   26.4085    2.5141   -8.5671 C   0  0  0  0  0  0  0  0  0  0  0  0
   25.6083    3.3147   -7.7368 C   0  0  0  0  0  0  0  0  0  0  0  0
   25.9433    3.5114   -6.3937 C   0  0  0  0  0  0  0  0  0  0  0  0
   25.0731    4.1297   -5.5126 C   0  0  0  0  0  0  0  0  0  0  0  0
   25.3701    4.0904   -4.2149 N   0  0  0  0  0  0  0  0  0  0  0  0
   22.1397    5.3078   -2.6489 C   0  0  0  0  0  0  0  0  0  0  0  0
   21.9651    4.4523   -1.7803 O   0  0  0  0  0  0  0  0  0  0  0  0
   21.2932    6.4141   -2.7288 N   0  0  0  0  0  0  0  0  0  0  0  0
   21.4022    7.5762   -3.5930 C   0  0  0  0  0  0  0  0  0  0  0  0
   21.0730    8.7384   -2.6753 C   0  0  0  0  0  0  0  0  0  0  0  0
   20.0776    8.1818   -1.6596 C   0  0  0  0  0  0  0  0  0  0  0  0
   20.2396    6.6571   -1.7034 C   0  0  1  0  0  0  0  0  0  0  0  0
   18.8655    6.0398   -2.0860 C   0  0  0  0  0  0  0  0  0  0  0  0
   17.8467    6.1361   -1.4078 O   0  0  0  0  0  0  0  0  0  0  0  0
   18.8837    5.4323   -3.3099 N   0  0  0  0  0  0  0  0  0  0  0  0
   17.7913    4.7605   -3.9811 C   0  0  1  0  0  0  0  0  0  0  0  0
   17.0086    5.7280   -4.8656 C   0  0  0  0  0  0  0  0  0  0  0  0
   17.7442    6.1813   -6.1633 C   0  0  0  0  0  0  0  0  0  0  0  0
   17.9418    5.1884   -7.3419 C   0  0  0  0  0  0  0  0  0  0  0  0
   16.7053    4.4460   -7.8472 C   0  0  0  0  0  0  0  0  0  0  0  0
   15.4424    4.6883   -7.4504 C   0  0  0  0  0  0  0  0  0  0  0  0
   14.1708    3.8677   -7.5216 C   0  0  0  0  0  0  0  0  0  0  0  0
   14.2506    2.4042   -7.9444 C   0  0  0  0  0  0  0  0  0  0  0  0
   15.0507    1.5683   -6.9238 C   0  0  0  0  0  0  0  0  0  0  0  0
   14.5662    0.6026   -5.4752 C   0  0  2  0  0  0  0  0  0  0  0  0
   15.6666   -0.5053   -4.3352 N   0  0  0  0  0  0  0  0  0  0  0  0
   16.8397   -1.6675   -4.4872 C   0  0  0  0  0  0  0  0  0  0  0  0
   17.0342   -2.3266   -5.5351 O   0  0  0  0  0  0  0  0  0  0  0  0
   17.9908   -2.3268   -3.4636 C   0  0  2  0  0  0  0  0  0  0  0  0
   17.2631   -2.8344   -2.2610 C   0  0  0  0  0  0  0  0  0  0  0  0
   18.3441   -3.6249   -1.5689 C   0  0  0  0  0  0  0  0  0  0  0  0
   19.6849   -2.9035   -1.7793 C   0  0  0  0  0  0  0  0  0  0  0  0
   19.5777   -2.1564   -3.0005 N   0  0  0  0  0  0  0  0  0  0  0  0
   20.8602   -1.6748   -3.6181 C   0  0  0  0  0  0  0  0  0  0  0  0
   21.0776   -1.4000   -4.7837 O   0  0  0  0  0  0  0  0  0  0  0  0
   22.0639   -1.0734   -3.1660 C   0  0  0  0  0  0  0  0  0  0  0  0
   23.2546   -0.8042   -4.0364 C   0  0  0  0  0  0  0  0  0  0  0  0
   23.3120   -0.7167   -5.5878 C   0  0  0  0  0  0  0  0  0  0  0  0
   24.5757   -0.9126   -6.4337 C   0  0  0  0  0  0  0  0  0  0  0  0
   24.4144   -0.5492   -3.4567 N   0  0  0  0  0  0  0  0  0  0  0  0
   24.3733   -0.6494   -2.1040 C   0  0  0  0  0  0  0  0  0  0  0  0
   25.4425   -1.2348   -1.5144 C   0  0  0  0  0  0  0  0  0  0  0  0
   25.2967   -1.7783   -0.2357 C   0  0  0  0  0  0  0  0  0  0  0  0
   26.2849   -2.6278    0.2372 C   0  0  0  0  0  0  0  0  0  0  0  0
   26.1239   -3.2181    1.4947 C   0  0  0  0  0  0  0  0  0  0  0  0
   24.9752   -2.9632    2.3349 C   0  0  0  0  0  0  0  0  0  0  0  0
   23.9612   -2.1610    1.7987 C   0  0  0  0  0  0  0  0  0  0  0  0
   24.1467   -1.5654    0.5616 C   0  0  0  0  0  0  0  0  0  0  0  0
   23.0887   -0.8333    0.0215 C   0  0  0  0  0  0  0  0  0  0  0  0
   23.1900   -0.5265   -1.3116 C   0  0  0  0  0  0  0  0  0  0  0  0
   21.9936   -0.5238   -1.9336 C   0  0  0  0  0  0  0  0  0  0  0  0
   13.2119    0.2542   -6.1771 C   0  0  0  0  0  0  0  0  0  0  0  0
   12.1142    0.5243   -5.6921 O   0  0  0  0  0  0  0  0  0  0  0  0
   13.3160   -0.5652   -7.2734 N   0  0  0  0  0  0  0  0  0  0  0  0
   12.2935   -1.4021   -7.9315 C   0  0  1  0  0  0  0  0  0  0  0  0
   13.0067   -2.3270   -8.9398 C   0  0  0  0  0  0  0  0  0  0  0  0
   11.9751   -3.2832   -9.5171 C   0  0  0  0  0  0  0  0  0  0  0  0
   12.5520   -4.4234  -10.3261 C   0  0  0  0  0  0  0  0  0  0  0  0
   13.4468   -5.3596   -9.5182 C   0  0  0  0  0  0  0  0  0  0  0  0
   13.8039   -6.5010  -10.3808 N   0  3  0  0  0  0  0  0  0  0  0  0
   11.6473   -2.3915   -6.9076 C   0  0  0  0  0  0  0  0  0  0  0  0
   12.3354   -3.2184   -6.2958 O   0  0  0  0  0  0  0  0  0  0  0  0
   10.3720   -2.0764   -6.4965 N   0  0  0  0  0  0  0  0  0  0  0  0
    9.6526   -2.8032   -5.4607 C   0  0  0  0  0  0  0  0  0  0  0  0
    9.1198   -1.8163   -4.4154 C   0  0  0  0  0  0  0  0  0  0  0  0
    8.3812   -2.5148   -3.2929 C   0  0  0  0  0  0  0  0  0  0  0  0
    7.9068   -1.4900   -2.3332 N   0  3  0  0  0  0  0  0  0  0  0  0
   18.4915    3.7108   -4.8747 C   0  0  0  0  0  0  0  0  0  0  0  0
   19.7220    3.6903   -4.9455 O   0  0  0  0  0  0  0  0  0  0  0  0
   17.6636    2.9182   -5.6463 N   0  0  0  0  0  0  0  0  0  0  0  0
   17.9400    1.6615   -6.6276 C   0  0  1  0  0  0  0  0  0  0  0  0
   19.4047    1.3583   -6.5803 C   0  0  0  0  0  0  0  0  0  0  0  0
   19.7653    0.9822   -5.1816 C   0  0  0  0  0  0  0  0  0  0  0  0
   19.1940   -0.3690   -4.9522 C   0  0  0  0  0  0  0  0  0  0  0  0
   19.3263   -1.7219   -6.0783 C   0  0  0  0  0  0  0  0  0  0  0  0
   20.4982   -2.6166   -6.2633 N   0  3  0  0  0  0  0  0  0  0  0  0
   16.9751    0.5941   -5.9705 C   0  0  0  0  0  0  0  0  0  0  0  0
   16.7528    1.0853   -4.8206 O   0  0  0  0  0  0  0  0  0  0  0  0
   16.1799   -0.6987   -6.6368 N   0  0  0  0  0  0  0  0  0  0  0  0
   15.0066   -2.0316   -6.0061 C   0  0  0  0  0  0  0  0  0  0  0  0
   14.3375   -2.3617   -4.3483 C   0  0  0  0  0  0  0  0  0  0  0  0
   13.4089   -1.3862   -3.5702 C   0  0  0  0  0  0  0  0  0  0  0  0
   12.2036   -1.4001   -4.3262 N   0  3  0  0  0  0  0  0  0  0  0  0
   26.6170    3.9626   -0.6005 H   0  0  0  0  0  0  0  0  0  0  0  0
   26.8694    5.0628   -1.9693 H   0  0  0  0  0  0  0  0  0  0  0  0
   26.8370    3.3110   -2.2256 H   0  0  0  0  0  0  0  0  0  0  0  0
   24.4673    4.9532   -1.1815 H   0  0  0  0  0  0  0  0  0  0  0  0
   24.4394    3.2242   -1.5982 H   0  0  0  0  0  0  0  0  0  0  0  0
   21.9955    5.5435   -5.3677 H   0  0  0  0  0  0  0  0  0  0  0  0
   22.6777    5.0666   -7.7474 H   0  0  0  0  0  0  0  0  0  0  0  0
   23.1699    4.0813  -10.0010 H   0  0  0  0  0  0  0  0  0  0  0  0
   24.5492    2.5918  -11.4044 H   0  0  0  0  0  0  0  0  0  0  0  0
   26.6233    1.5810  -10.4944 H   0  0  0  0  0  0  0  0  0  0  0  0
   27.3281    2.0712   -8.1872 H   0  0  0  0  0  0  0  0  0  0  0  0
   26.8655    3.0927   -5.9931 H   0  0  0  0  0  0  0  0  0  0  0  0
   20.6339    7.4785   -4.3701 H   0  0  0  0  0  0  0  0  0  0  0  0
   22.3805    7.6760   -4.0635 H   0  0  0  0  0  0  0  0  0  0  0  0
   20.6704    9.5978   -3.2200 H   0  0  0  0  0  0  0  0  0  0  0  0
   21.9792    9.0633   -2.1527 H   0  0  0  0  0  0  0  0  0  0  0  0
   19.0600    8.5041   -1.9102 H   0  0  0  0  0  0  0  0  0  0  0  0
   20.2942    8.5686   -0.6574 H   0  0  0  0  0  0  0  0  0  0  0  0
   20.5430    6.2337   -0.7404 H   0  0  0  0  0  0  0  0  0  0  0  0
   19.8124    5.2598   -3.6894 H   0  0  0  0  0  0  0  0  0  0  0  0
   17.1414    4.3017   -3.2216 H   0  0  0  0  0  0  0  0  0  0  0  0
   16.7605    6.6311   -4.2909 H   0  0  0  0  0  0  0  0  0  0  0  0
   16.0443    5.2605   -5.0739 H   0  0  0  0  0  0  0  0  0  0  0  0
   18.7312    6.5616   -5.8704 H   0  0  0  0  0  0  0  0  0  0  0  0
   17.1946    7.0323   -6.5742 H   0  0  0  0  0  0  0  0  0  0  0  0
   18.7099    4.4524   -7.0755 H   0  0  0  0  0  0  0  0  0  0  0  0
   18.4352    5.6945   -8.1759 H   0  0  0  0  0  0  0  0  0  0  0  0
   16.9359    3.5868   -8.4680 H   0  0  0  0  0  0  0  0  0  0  0  0
   15.2718    5.6160   -6.9101 H   0  0  0  0  0  0  0  0  0  0  0  0
   13.4624    4.3965   -8.1595 H   0  0  0  0  0  0  0  0  0  0  0  0
   13.7593    3.8522   -6.5044 H   0  0  0  0  0  0  0  0  0  0  0  0
   14.8134    2.3937   -8.8989 H   0  0  0  0  0  0  0  0  0  0  0  0
   13.2796    1.9738   -8.1898 H   0  0  0  0  0  0  0  0  0  0  0  0
   15.6774    2.3257   -6.5150 H   0  0  0  0  0  0  0  0  0  0  0  0
   15.5822    0.9553   -7.6624 H   0  0  0  0  0  0  0  0  0  0  0  0
   14.3420    1.4015   -4.7508 H   0  0  0  0  0  0  0  0  0  0  0  0
   16.0448    0.1555   -3.6564 H   0  0  0  0  0  0  0  0  0  0  0  0
   18.1438   -3.2895   -4.0156 H   0  0  0  0  0  0  0  0  0  0  0  0
   16.4489   -3.5147   -2.5521 H   0  0  0  0  0  0  0  0  0  0  0  0
   16.8369   -1.9929   -1.7163 H   0  0  0  0  0  0  0  0  0  0  0  0
   18.3825   -4.6173   -2.0431 H   0  0  0  0  0  0  0  0  0  0  0  0
   18.0908   -3.7576   -0.5209 H   0  0  0  0  0  0  0  0  0  0  0  0
   20.5063   -3.6170   -1.8789 H   0  0  0  0  0  0  0  0  0  0  0  0
   19.8628   -2.1833   -0.9904 H   0  0  0  0  0  0  0  0  0  0  0  0
   22.8067    0.1971   -5.9429 H   0  0  0  0  0  0  0  0  0  0  0  0
   22.7956   -1.5710   -5.9845 H   0  0  0  0  0  0  0  0  0  0  0  0
   25.2697   -0.0755   -6.3828 H   0  0  0  0  0  0  0  0  0  0  0  0
   24.2845   -1.0239   -7.4969 H   0  0  0  0  0  0  0  0  0  0  0  0
   25.0727   -1.8469   -6.1614 H   0  0  0  0  0  0  0  0  0  0  0  0
   26.3091   -1.4638   -2.1296 H   0  0  0  0  0  0  0  0  0  0  0  0
   27.1487   -2.8465   -0.3702 H   0  0  0  0  0  0  0  0  0  0  0  0
   26.9106   -3.8741    1.8533 H   0  0  0  0  0  0  0  0  0  0  0  0
   24.8972   -3.4548    3.2468 H   0  0  0  0  0  0  0  0  0  0  0  0
   23.0718   -1.9940    2.3972 H   0  0  0  0  0  0  0  0  0  0  0  0
   22.1312   -0.7450    0.5424 H   0  0  0  0  0  0  0  0  0  0  0  0
   21.0478   -0.4225   -1.4380 H   0  0  0  0  0  0  0  0  0  0  0  0
   14.2407   -0.5691   -7.7113 H   0  0  0  0  0  0  0  0  0  0  0  0
   11.5676   -0.7347   -8.3876 H   0  0  0  0  0  0  0  0  0  0  0  0
   13.8011   -2.9189   -8.4645 H   0  0  0  0  0  0  0  0  0  0  0  0
   13.5235   -1.7478   -9.7116 H   0  0  0  0  0  0  0  0  0  0  0  0
   11.2713   -2.6923  -10.1095 H   0  0  0  0  0  0  0  0  0  0  0  0
   11.3876   -3.7555   -8.7231 H   0  0  0  0  0  0  0  0  0  0  0  0
   13.0935   -4.0216  -11.1870 H   0  0  0  0  0  0  0  0  0  0  0  0
   11.6954   -4.9932  -10.7035 H   0  0  0  0  0  0  0  0  0  0  0  0
   12.9447   -5.7599   -8.6298 H   0  0  0  0  0  0  0  0  0  0  0  0
   14.3860   -4.8883   -9.2114 H   0  0  0  0  0  0  0  0  0  0  0  0
   12.9711   -7.0410  -10.6596 H   0  0  0  0  0  0  0  0  0  0  0  0
   14.4448   -7.1626   -9.9216 H   0  0  0  0  0  0  0  0  0  0  0  0
   14.2586   -6.1942  -11.2531 H   0  0  0  0  0  0  0  0  0  0  0  0
    9.8187   -1.5076   -7.1381 H   0  0  0  0  0  0  0  0  0  0  0  0
   10.3047   -3.5505   -4.9903 H   0  0  0  0  0  0  0  0  0  0  0  0
    8.8415   -3.3430   -5.9512 H   0  0  0  0  0  0  0  0  0  0  0  0
    8.5012   -1.0640   -4.9121 H   0  0  0  0  0  0  0  0  0  0  0  0
    9.9282   -1.2447   -3.9562 H   0  0  0  0  0  0  0  0  0  0  0  0
    9.0433   -3.1911   -2.7408 H   0  0  0  0  0  0  0  0  0  0  0  0
    7.5101   -3.0547   -3.6645 H   0  0  0  0  0  0  0  0  0  0  0  0
    8.6481   -0.9722   -1.8418 H   0  0  0  0  0  0  0  0  0  0  0  0
    7.3364   -1.9225   -1.5911 H   0  0  0  0  0  0  0  0  0  0  0  0
    7.2931   -0.7894   -2.7767 H   0  0  0  0  0  0  0  0  0  0  0  0
   16.7609    2.8578   -5.1885 H   0  0  0  0  0  0  0  0  0  0  0  0
   17.6015    1.9004   -7.6256 H   0  0  0  0  0  0  0  0  0  0  0  0
   19.9904    2.2223   -6.8868 H   0  0  0  0  0  0  0  0  0  0  0  0
   19.6410    0.5388   -7.2502 H   0  0  0  0  0  0  0  0  0  0  0  0
   19.2851    1.5853   -4.3881 H   0  0  0  0  0  0  0  0  0  0  0  0
   20.8206    1.0869   -4.9396 H   0  0  0  0  0  0  0  0  0  0  0  0
   18.1916   -0.2594   -4.6619 H   0  0  0  0  0  0  0  0  0  0  0  0
   19.3807   -0.3834   -3.8764 H   0  0  0  0  0  0  0  0  0  0  0  0
   19.0147   -1.4251   -7.0687 H   0  0  0  0  0  0  0  0  0  0  0  0
   18.7876   -2.5605   -5.7181 H   0  0  0  0  0  0  0  0  0  0  0  0
   21.2596   -1.9540   -6.3183 H   0  0  0  0  0  0  0  0  0  0  0  0
   20.5467   -3.3204   -6.9945 H   0  0  0  0  0  0  0  0  0  0  0  0
   20.7209   -3.0832   -5.3678 H   0  0  0  0  0  0  0  0  0  0  0  0
   16.7097   -1.0923   -7.4035 H   0  0  0  0  0  0  0  0  0  0  0  0
   15.4735   -3.0157   -6.2227 H   0  0  0  0  0  0  0  0  0  0  0  0
   14.2740   -2.2374   -6.7405 H   0  0  0  0  0  0  0  0  0  0  0  0
   15.1115   -2.5724   -3.6183 H   0  0  0  0  0  0  0  0  0  0  0  0
   13.8485   -3.3418   -4.3951 H   0  0  0  0  0  0  0  0  0  0  0  0
   13.6897   -0.3364   -3.4586 H   0  0  0  0  0  0  0  0  0  0  0  0
   13.1420   -1.7065   -2.5601 H   0  0  0  0  0  0  0  0  0  0  0  0
   12.5311   -1.5467   -5.2767 H   0  0  0  0  0  0  0  0  0  0  0  0
   11.6986   -0.4975   -4.4471 H   0  0  0  0  0  0  0  0  0  0  0  0
   11.6507   -2.2352   -4.1873 H   0  0  0  0  0  0  0  0  0  0  0  0
  1  2  1  0  0  0  0
  1 95  1  0  0  0  0
  1 96  1  0  0  0  0
  1 97  1  0  0  0  0
  2  3  1  0  0  0  0
  2 98  1  0  0  0  0
  2 99  1  0  0  0  0
  3  4  2  0  0  0  0
  3 16  1  0  0  0  0
  4  5  1  0  0  0  0
  4 17  1  0  0  0  0
  5  6  2  0  0  0  0
  5100  1  0  0  0  0
  6  7  1  0  0  0  0
  6 15  1  0  0  0  0
  7  8  2  0  0  0  0
  7101  1  0  0  0  0
  8  9  1  0  0  0  0
  8 13  1  0  0  0  0
  9 10  2  0  0  0  0
  9102  1  0  0  0  0
 10 11  1  0  0  0  0
 10103  1  0  0  0  0
 11 12  2  0  0  0  0
 11104  1  0  0  0  0
 12 13  1  0  0  0  0
 12105  1  0  0  0  0
 13 14  2  0  0  0  0
 14 15  1  0  0  0  0
 14106  1  0  0  0  0
 15 16  2  0  0  0  0
 17 18  2  0  0  0  0
 17 19  1  0  0  0  0
 19 20  1  0  0  0  0
 19 23  1  0  0  0  0
 20 21  1  0  0  0  0
 20107  1  0  0  0  0
 20108  1  0  0  0  0
 21 22  1  0  0  0  0
 21109  1  0  0  0  0
 21110  1  0  0  0  0
 22 23  1  0  0  0  0
 22111  1  0  0  0  0
 22112  1  0  0  0  0
 23 24  1  0  0  0  0
 23113  1  1  0  0  0
 24 25  2  0  0  0  0
 24 26  1  0  0  0  0
 26 27  1  0  0  0  0
 26114  1  0  0  0  0
 27 28  1  0  0  0  0
 27 79  1  0  0  0  0
 27115  1  1  0  0  0
 28 29  1  0  0  0  0
 28116  1  0  0  0  0
 28117  1  0  0  0  0
 29 30  1  0  0  0  0
 29118  1  0  0  0  0
 29119  1  0  0  0  0
 30 31  1  0  0  0  0
 30120  1  0  0  0  0
 30121  1  0  0  0  0
 31 32  2  0  0  0  0
 31122  1  0  0  0  0
 32 33  1  0  0  0  0
 32123  1  0  0  0  0
 33 34  1  0  0  0  0
 33124  1  0  0  0  0
 33125  1  0  0  0  0
 34 35  1  0  0  0  0
 34126  1  0  0  0  0
 34127  1  0  0  0  0
 35128  1  0  0  0  0
 35129  1  0  0  0  0
 36 63  1  0  0  0  0
 36 37  1  0  0  0  0
 36 35  1  0  0  0  0
 36130  1  1  0  0  0
 37 38  1  0  0  0  0
 37131  1  0  0  0  0
 38 39  2  0  0  0  0
 38 40  1  0  0  0  0
 40 41  1  0  0  0  0
 40 44  1  0  0  0  0
 40132  1  6  0  0  0
 41 42  1  0  0  0  0
 41133  1  0  0  0  0
 41134  1  0  0  0  0
 42 43  1  0  0  0  0
 42135  1  0  0  0  0
 42136  1  0  0  0  0
 43 44  1  0  0  0  0
 43137  1  0  0  0  0
 43138  1  0  0  0  0
 44 45  1  0  0  0  0
 45 46  2  0  0  0  0
 45 47  1  0  0  0  0
 47 48  2  0  0  0  0
 47 62  1  0  0  0  0
 48 49  1  0  0  0  0
 48 51  1  0  0  0  0
 49 50  1  0  0  0  0
 49139  1  0  0  0  0
 49140  1  0  0  0  0
 50141  1  0  0  0  0
 50142  1  0  0  0  0
 50143  1  0  0  0  0
 51 52  2  0  0  0  0
 52 53  1  0  0  0  0
 52 61  1  0  0  0  0
 53 54  2  0  0  0  0
 53144  1  0  0  0  0
 54 55  1  0  0  0  0
 54 59  1  0  0  0  0
 55 56  2  0  0  0  0
 55145  1  0  0  0  0
 56 57  1  0  0  0  0
 56146  1  0  0  0  0
 57 58  2  0  0  0  0
 57147  1  0  0  0  0
 58 59  1  0  0  0  0
 58148  1  0  0  0  0
 59 60  2  0  0  0  0
 60 61  1  0  0  0  0
 60149  1  0  0  0  0
 61 62  2  0  0  0  0
 62150  1  0  0  0  0
 63 64  2  0  0  0  0
 63 65  1  0  0  0  0
 65 66  1  0  0  0  0
 65151  1  0  0  0  0
 66 67  1  0  0  0  0
 66 72  1  0  0  0  0
 66152  1  6  0  0  0
 67 68  1  0  0  0  0
 67153  1  0  0  0  0
 67154  1  0  0  0  0
 68 69  1  0  0  0  0
 68155  1  0  0  0  0
 68156  1  0  0  0  0
 69 70  1  0  0  0  0
 69157  1  0  0  0  0
 69158  1  0  0  0  0
 70 71  1  0  0  0  0
 70159  1  0  0  0  0
 70160  1  0  0  0  0
 71161  1  0  0  0  0
 71162  1  0  0  0  0
 71163  1  0  0  0  0
 72 73  2  0  0  0  0
 72 74  1  0  0  0  0
 74 75  1  0  0  0  0
 74164  1  0  0  0  0
 75 76  1  0  0  0  0
 75165  1  0  0  0  0
 75166  1  0  0  0  0
 76 77  1  0  0  0  0
 76167  1  0  0  0  0
 76168  1  0  0  0  0
 77 78  1  0  0  0  0
 77169  1  0  0  0  0
 77170  1  0  0  0  0
 78171  1  0  0  0  0
 78172  1  0  0  0  0
 78173  1  0  0  0  0
 79 80  2  0  0  0  0
 79 81  1  0  0  0  0
 81 82  1  0  0  0  0
 81174  1  0  0  0  0
 82 83  1  0  0  0  0
 82 88  1  0  0  0  0
 82175  1  6  0  0  0
 83 84  1  0  0  0  0
 83176  1  0  0  0  0
 83177  1  0  0  0  0
 84 85  1  0  0  0  0
 84178  1  0  0  0  0
 84179  1  0  0  0  0
 85 86  1  0  0  0  0
 85180  1  0  0  0  0
 85181  1  0  0  0  0
 86 87  1  0  0  0  0
 86182  1  0  0  0  0
 86183  1  0  0  0  0
 87184  1  0  0  0  0
 87185  1  0  0  0  0
 87186  1  0  0  0  0
 88 89  2  0  0  0  0
 88 90  1  0  0  0  0
 90 91  1  0  0  0  0
 90187  1  0  0  0  0
 91 92  1  0  0  0  0
 91188  1  0  0  0  0
 91189  1  0  0  0  0
 92 93  1  0  0  0  0
 92190  1  0  0  0  0
 92191  1  0  0  0  0
 93 94  1  0  0  0  0
 93192  1  0  0  0  0
 93193  1  0  0  0  0
 94194  1  0  0  0  0
 94195  1  0  0  0  0
 94196  1  0  0  0  0
M  CHG  4  71   1  78   1  87   1  94   1
M  END
$$$$
Target_lig_654
 OpenBabel04172516573D

192201  0  0  1  0  0  0  0  0999 V2000
   13.7306   -0.3864    3.3869 C   0  0  0  0  0  0  0  0  0  0  0  0
   13.7603   -1.8148    2.8294 C   0  0  0  0  0  0  0  0  0  0  0  0
   12.6615   -2.6999    3.2979 C   0  0  0  0  0  0  0  0  0  0  0  0
   12.3281   -4.0491    2.9194 C   0  0  0  0  0  0  0  0  0  0  0  0
   11.4491   -4.6313    3.8183 C   0  0  0  0  0  0  0  0  0  0  0  0
   10.9548   -3.9957    4.9263 C   0  0  0  0  0  0  0  0  0  0  0  0
   10.0802   -4.6314    5.8298 C   0  0  0  0  0  0  0  0  0  0  0  0
    9.4627   -3.8384    6.7799 C   0  0  0  0  0  0  0  0  0  0  0  0
    8.4051   -4.3487    7.5234 C   0  0  0  0  0  0  0  0  0  0  0  0
    7.6778   -3.5195    8.3169 C   0  0  0  0  0  0  0  0  0  0  0  0
    8.0314   -2.1676    8.4604 C   0  0  0  0  0  0  0  0  0  0  0  0
    9.1265   -1.6275    7.8387 C   0  0  0  0  0  0  0  0  0  0  0  0
    9.8498   -2.4875    6.9389 C   0  0  0  0  0  0  0  0  0  0  0  0
   10.8324   -1.9239    6.1748 C   0  0  0  0  0  0  0  0  0  0  0  0
   11.3016   -2.6801    5.1431 C   0  0  0  0  0  0  0  0  0  0  0  0
   12.1037   -2.0615    4.3257 N   0  0  0  0  0  0  0  0  0  0  0  0
   13.0072   -4.8142    1.8105 C   0  0  0  0  0  0  0  0  0  0  0  0
   14.0579   -4.3272    1.3862 O   0  0  0  0  0  0  0  0  0  0  0  0
   12.5216   -6.0595    1.2458 N   0  0  0  0  0  0  0  0  0  0  0  0
   13.3811   -6.7931    0.2510 C   0  0  0  0  0  0  0  0  0  0  0  0
   11.0397   -6.4284    1.2368 C   0  0  1  0  0  0  0  0  0  0  0  0
   10.2399   -5.1972    0.8267 C   0  0  0  0  0  0  0  0  0  0  0  0
   11.0433   -4.5141   -0.2058 C   0  0  0  0  0  0  0  0  0  0  0  0
   10.5323   -3.5884   -0.9966 C   0  0  0  0  0  0  0  0  0  0  0  0
   10.8308   -3.9329   -2.4067 C   0  0  0  0  0  0  0  0  0  0  0  0
   12.2184   -4.4760   -3.4772 C   0  0  2  0  0  0  0  0  0  0  0  0
   13.0615   -3.5552   -4.7675 N   0  0  0  0  0  0  0  0  0  0  0  0
   13.0471   -4.0840   -6.0683 C   0  0  0  0  0  0  0  0  0  0  0  0
   13.4476   -2.1597   -5.0794 C   0  0  0  0  0  0  0  0  0  0  0  0
   13.3929   -1.6454   -6.2067 O   0  0  0  0  0  0  0  0  0  0  0  0
   13.8791   -1.2188   -4.0742 C   0  0  0  0  0  0  0  0  0  0  0  0
   13.5213    0.1488   -3.9994 C   0  0  0  0  0  0  0  0  0  0  0  0
   12.4500    0.8218   -4.8593 C   0  0  0  0  0  0  0  0  0  0  0  0
   13.0053    1.7910   -5.8649 C   0  0  0  0  0  0  0  0  0  0  0  0
   13.8681    0.8902   -2.9011 N   0  0  0  0  0  0  0  0  0  0  0  0
   14.4676    0.2681   -1.8837 C   0  0  0  0  0  0  0  0  0  0  0  0
   14.7371    0.9359   -0.7034 C   0  0  0  0  0  0  0  0  0  0  0  0
   15.4786    0.2964    0.2985 C   0  0  0  0  0  0  0  0  0  0  0  0
   15.9868    0.9844    1.3986 C   0  0  0  0  0  0  0  0  0  0  0  0
   16.7325    0.3042    2.3707 C   0  0  0  0  0  0  0  0  0  0  0  0
   16.9599   -1.0687    2.2633 C   0  0  0  0  0  0  0  0  0  0  0  0
   16.4499   -1.7699    1.1834 C   0  0  0  0  0  0  0  0  0  0  0  0
   15.7188   -1.0967    0.2131 C   0  0  0  0  0  0  0  0  0  0  0  0
   15.2328   -1.8182   -0.8389 C   0  0  0  0  0  0  0  0  0  0  0  0
   14.7477   -1.1118   -1.9153 C   0  0  0  0  0  0  0  0  0  0  0  0
   14.5159   -1.8229   -3.0420 C   0  0  0  0  0  0  0  0  0  0  0  0
   11.8329   -6.1397   -3.6492 C   0  0  0  0  0  0  0  0  0  0  0  0
   11.7990   -6.7734   -2.5850 O   0  0  0  0  0  0  0  0  0  0  0  0
   11.2622   -6.7575   -4.7645 N   0  0  0  0  0  0  0  0  0  0  0  0
   10.6968   -8.1238   -4.8451 C   0  0  0  0  0  0  0  0  0  0  0  0
   11.5189   -8.8383   -5.8969 C   0  0  0  0  0  0  0  0  0  0  0  0
   11.8798   -7.7020   -6.8512 C   0  0  0  0  0  0  0  0  0  0  0  0
   11.5008   -6.3805   -6.1268 C   0  0  1  0  0  0  0  0  0  0  0  0
   10.5188   -5.1996   -7.0051 C   0  0  0  0  0  0  0  0  0  0  0  0
   10.3448   -5.4320   -8.2135 O   0  0  0  0  0  0  0  0  0  0  0  0
   10.1589   -3.7965   -6.4785 N   0  0  0  0  0  0  0  0  0  0  0  0
   10.0206   -2.7857   -7.5044 C   0  0  0  0  0  0  0  0  0  0  0  0
    9.5592   -3.2871   -5.0696 C   0  0  1  0  0  0  0  0  0  0  0  0
    9.1953   -4.6636   -4.4242 C   0  0  0  0  0  0  0  0  0  0  0  0
    8.0505   -5.6147   -4.3993 C   0  0  0  0  0  0  0  0  0  0  0  0
    7.3506   -5.6777   -5.5880 C   0  0  0  0  0  0  0  0  0  0  0  0
    6.8884   -6.9096   -6.0041 C   0  0  0  0  0  0  0  0  0  0  0  0
    7.0138   -8.0472   -5.1965 C   0  0  0  0  0  0  0  0  0  0  0  0
    7.6084   -7.9695   -3.9398 C   0  0  0  0  0  0  0  0  0  0  0  0
    8.1447   -6.7513   -3.5365 C   0  0  0  0  0  0  0  0  0  0  0  0
   10.4284   -1.9951   -4.1272 C   0  0  0  0  0  0  0  0  0  0  0  0
   11.6070   -2.0210   -4.0466 O   0  0  0  0  0  0  0  0  0  0  0  0
    9.9884   -1.1330   -3.0683 N   0  0  0  0  0  0  0  0  0  0  0  0
   11.0656   -0.5102   -2.1984 C   0  0  0  0  0  0  0  0  0  0  0  0
   10.8150    0.1797   -0.8387 C   0  0  0  0  0  0  0  0  0  0  0  0
   10.7459   -0.7684    0.3162 C   0  0  0  0  0  0  0  0  0  0  0  0
   11.9628   -1.5938    0.3858 N   0  3  0  0  0  0  0  0  0  0  0  0
   10.5519   -7.7636    0.5680 C   0  0  0  0  0  0  0  0  0  0  0  0
   10.5893   -7.9268   -0.6492 O   0  0  0  0  0  0  0  0  0  0  0  0
   10.1737   -8.8156    1.3975 N   0  0  0  0  0  0  0  0  0  0  0  0
    9.7322  -10.0692    0.8034 C   0  0  0  0  0  0  0  0  0  0  0  0
    8.2993  -10.1735    1.2751 C   0  0  0  0  0  0  0  0  0  0  0  0
    8.3335   -9.5631    2.6791 C   0  0  0  0  0  0  0  0  0  0  0  0
    9.6508   -8.7433    2.7703 C   0  0  1  0  0  0  0  0  0  0  0  0
   10.5617   -9.2294    3.9823 C   0  0  0  0  0  0  0  0  0  0  0  0
   10.0308   -9.8314    4.9211 O   0  0  0  0  0  0  0  0  0  0  0  0
   11.8801   -8.7851    4.1340 N   0  0  0  0  0  0  0  0  0  0  0  0
   12.5918   -8.0740    3.1379 C   0  0  0  0  0  0  0  0  0  0  0  0
   12.5812   -8.8996    5.4362 C   0  0  1  0  0  0  0  0  0  0  0  0
   12.8729  -10.3550    5.8403 C   0  0  0  0  0  0  0  0  0  0  0  0
   13.6698  -11.1770    4.8503 C   0  0  0  0  0  0  0  0  0  0  0  0
   15.0601  -11.3083    4.9835 C   0  0  0  0  0  0  0  0  0  0  0  0
   15.7893  -12.1069    4.1041 C   0  0  0  0  0  0  0  0  0  0  0  0
   15.1316  -12.8126    3.1013 C   0  0  0  0  0  0  0  0  0  0  0  0
   13.7531  -12.6804    2.9475 C   0  0  0  0  0  0  0  0  0  0  0  0
   13.0282  -11.8517    3.8045 C   0  0  0  0  0  0  0  0  0  0  0  0
   13.9216   -8.0877    5.5253 C   0  0  0  0  0  0  0  0  0  0  0  0
   14.9789   -8.4510    5.0092 O   0  0  0  0  0  0  0  0  0  0  0  0
   13.8625   -6.7992    6.0337 N   0  0  0  0  0  0  0  0  0  0  0  0
   15.1260   -6.1369    6.3513 C   0  0  0  0  0  0  0  0  0  0  0  0
   15.8125   -5.5872    5.1203 C   0  0  0  0  0  0  0  0  0  0  0  0
   15.0243   -4.4634    4.5525 C   0  0  0  0  0  0  0  0  0  0  0  0
   15.6620   -4.1829    3.2531 N   0  3  0  0  0  0  0  0  0  0  0  0
   14.2527    0.2854    2.7261 H   0  0  0  0  0  0  0  0  0  0  0  0
   14.2633   -0.3614    4.3459 H   0  0  0  0  0  0  0  0  0  0  0  0
   12.7443    0.0656    3.5119 H   0  0  0  0  0  0  0  0  0  0  0  0
   14.6650   -2.1874    3.2666 H   0  0  0  0  0  0  0  0  0  0  0  0
   13.8588   -1.8527    1.7612 H   0  0  0  0  0  0  0  0  0  0  0  0
   11.1032   -5.6514    3.7189 H   0  0  0  0  0  0  0  0  0  0  0  0
    9.8166   -5.6750    5.6830 H   0  0  0  0  0  0  0  0  0  0  0  0
    8.1133   -5.4055    7.4089 H   0  0  0  0  0  0  0  0  0  0  0  0
    6.7877   -3.8849    8.8324 H   0  0  0  0  0  0  0  0  0  0  0  0
    7.4240   -1.4971    9.0706 H   0  0  0  0  0  0  0  0  0  0  0  0
    9.4139   -0.6211    7.9193 H   0  0  0  0  0  0  0  0  0  0  0  0
   11.1637   -0.8992    6.2921 H   0  0  0  0  0  0  0  0  0  0  0  0
   14.2870   -6.2422   -0.0156 H   0  0  0  0  0  0  0  0  0  0  0  0
   12.8418   -6.9771   -0.6722 H   0  0  0  0  0  0  0  0  0  0  0  0
   13.6639   -7.7695    0.6464 H   0  0  0  0  0  0  0  0  0  0  0  0
   10.7581   -6.5723    2.2535 H   0  0  0  0  0  0  0  0  0  0  0  0
   10.1631   -4.4846    1.6485 H   0  0  0  0  0  0  0  0  0  0  0  0
    9.2118   -5.4312    0.5334 H   0  0  0  0  0  0  0  0  0  0  0  0
   11.8399   -5.0778   -0.6933 H   0  0  0  0  0  0  0  0  0  0  0  0
    9.5378   -3.2052   -0.7380 H   0  0  0  0  0  0  0  0  0  0  0  0
   10.0012   -3.4146   -2.8443 H   0  0  0  0  0  0  0  0  0  0  0  0
   10.3066   -4.8943   -2.2205 H   0  0  0  0  0  0  0  0  0  0  0  0
   13.0125   -4.4791   -2.7286 H   0  0  0  0  0  0  0  0  0  0  0  0
   12.9270   -3.4638   -6.9660 H   0  0  0  0  0  0  0  0  0  0  0  0
   12.0689   -4.4248   -5.9645 H   0  0  0  0  0  0  0  0  0  0  0  0
   13.8343   -4.8080   -6.2459 H   0  0  0  0  0  0  0  0  0  0  0  0
   11.8023    1.4394   -4.2130 H   0  0  0  0  0  0  0  0  0  0  0  0
   11.7537    0.1144   -5.3221 H   0  0  0  0  0  0  0  0  0  0  0  0
   13.5601    2.5796   -5.3485 H   0  0  0  0  0  0  0  0  0  0  0  0
   12.1917    2.2661   -6.4256 H   0  0  0  0  0  0  0  0  0  0  0  0
   13.6647    1.2698   -6.5564 H   0  0  0  0  0  0  0  0  0  0  0  0
   14.4147    1.9697   -0.6038 H   0  0  0  0  0  0  0  0  0  0  0  0
   15.7676    2.0435    1.5417 H   0  0  0  0  0  0  0  0  0  0  0  0
   17.0920    0.8431    3.2427 H   0  0  0  0  0  0  0  0  0  0  0  0
   17.5224   -1.5766    3.0394 H   0  0  0  0  0  0  0  0  0  0  0  0
   16.6105   -2.8404    1.0774 H   0  0  0  0  0  0  0  0  0  0  0  0
   15.2741   -2.9051   -0.8688 H   0  0  0  0  0  0  0  0  0  0  0  0
   14.7442   -2.9033   -3.0965 H   0  0  0  0  0  0  0  0  0  0  0  0
    9.7204   -8.0175   -5.3256 H   0  0  0  0  0  0  0  0  0  0  0  0
   10.5751   -8.6699   -3.9065 H   0  0  0  0  0  0  0  0  0  0  0  0
   10.9775   -9.6362   -6.4190 H   0  0  0  0  0  0  0  0  0  0  0  0
   12.4068   -9.2882   -5.4355 H   0  0  0  0  0  0  0  0  0  0  0  0
   11.4436   -7.7869   -7.8436 H   0  0  0  0  0  0  0  0  0  0  0  0
   12.9761   -7.7494   -6.9826 H   0  0  0  0  0  0  0  0  0  0  0  0
   12.5199   -6.0671   -6.0281 H   0  0  0  0  0  0  0  0  0  0  0  0
   10.4307   -3.1050   -8.4612 H   0  0  0  0  0  0  0  0  0  0  0  0
   10.5634   -1.8943   -7.1687 H   0  0  0  0  0  0  0  0  0  0  0  0
    8.9606   -2.5433   -7.6134 H   0  0  0  0  0  0  0  0  0  0  0  0
    8.6221   -2.7738   -5.2910 H   0  0  0  0  0  0  0  0  0  0  0  0
    9.8178   -5.0495   -3.6931 H   0  0  0  0  0  0  0  0  0  0  0  0
    9.7224   -5.2852   -5.1107 H   0  0  0  0  0  0  0  0  0  0  0  0
    7.4129   -4.8476   -6.2873 H   0  0  0  0  0  0  0  0  0  0  0  0
    6.5232   -6.9963   -7.0218 H   0  0  0  0  0  0  0  0  0  0  0  0
    6.7304   -9.0145   -5.5983 H   0  0  0  0  0  0  0  0  0  0  0  0
    7.8160   -8.8796   -3.3758 H   0  0  0  0  0  0  0  0  0  0  0  0
    8.8513   -6.7927   -2.6968 H   0  0  0  0  0  0  0  0  0  0  0  0
    9.0849   -1.3328   -2.6543 H   0  0  0  0  0  0  0  0  0  0  0  0
   11.4997    0.3128   -2.7535 H   0  0  0  0  0  0  0  0  0  0  0  0
   11.9120   -1.2251   -2.0428 H   0  0  0  0  0  0  0  0  0  0  0  0
    9.9236    0.7884   -0.9247 H   0  0  0  0  0  0  0  0  0  0  0  0
   11.6554    0.8546   -0.6230 H   0  0  0  0  0  0  0  0  0  0  0  0
    9.8852   -1.4267    0.2458 H   0  0  0  0  0  0  0  0  0  0  0  0
   10.7001   -0.2432    1.2721 H   0  0  0  0  0  0  0  0  0  0  0  0
   12.1589   -2.1998   -0.4236 H   0  0  0  0  0  0  0  0  0  0  0  0
   11.8398   -2.2432    1.1569 H   0  0  0  0  0  0  0  0  0  0  0  0
   12.7995   -1.0128    0.4981 H   0  0  0  0  0  0  0  0  0  0  0  0
   10.3466  -10.8672    1.2351 H   0  0  0  0  0  0  0  0  0  0  0  0
    9.8168  -10.1094   -0.2859 H   0  0  0  0  0  0  0  0  0  0  0  0
    7.9272  -11.2022    1.2685 H   0  0  0  0  0  0  0  0  0  0  0  0
    7.6451   -9.5767    0.6262 H   0  0  0  0  0  0  0  0  0  0  0  0
    8.2632  -10.3555    3.4279 H   0  0  0  0  0  0  0  0  0  0  0  0
    7.4603   -8.9124    2.8156 H   0  0  0  0  0  0  0  0  0  0  0  0
    9.3703   -7.7115    3.0086 H   0  0  0  0  0  0  0  0  0  0  0  0
   12.2910   -8.4077    2.1632 H   0  0  0  0  0  0  0  0  0  0  0  0
   13.6737   -8.1467    3.1513 H   0  0  0  0  0  0  0  0  0  0  0  0
   12.3653   -7.0444    3.3681 H   0  0  0  0  0  0  0  0  0  0  0  0
   11.8986   -8.4615    6.1757 H   0  0  0  0  0  0  0  0  0  0  0  0
   11.9337  -10.8827    6.0379 H   0  0  0  0  0  0  0  0  0  0  0  0
   13.4025  -10.3453    6.8014 H   0  0  0  0  0  0  0  0  0  0  0  0
   15.5930  -10.7833    5.7739 H   0  0  0  0  0  0  0  0  0  0  0  0
   16.8668  -12.1946    4.2177 H   0  0  0  0  0  0  0  0  0  0  0  0
   15.6919  -13.4781    2.4499 H   0  0  0  0  0  0  0  0  0  0  0  0
   13.2385  -13.2449    2.1746 H   0  0  0  0  0  0  0  0  0  0  0  0
   11.9531  -11.7666    3.6710 H   0  0  0  0  0  0  0  0  0  0  0  0
   12.9952   -6.4569    6.4334 H   0  0  0  0  0  0  0  0  0  0  0  0
   15.8067   -6.8687    6.7954 H   0  0  0  0  0  0  0  0  0  0  0  0
   14.9281   -5.3433    7.0752 H   0  0  0  0  0  0  0  0  0  0  0  0
   15.8944   -6.3592    4.3453 H   0  0  0  0  0  0  0  0  0  0  0  0
   16.8240   -5.2286    5.3288 H   0  0  0  0  0  0  0  0  0  0  0  0
   14.9945   -3.5479    5.1568 H   0  0  0  0  0  0  0  0  0  0  0  0
   14.0090   -4.7993    4.3801 H   0  0  0  0  0  0  0  0  0  0  0  0
   16.4232   -3.5075    3.3451 H   0  0  0  0  0  0  0  0  0  0  0  0
   15.0173   -3.8580    2.5179 H   0  0  0  0  0  0  0  0  0  0  0  0
   16.0247   -5.0310    2.8012 H   0  0  0  0  0  0  0  0  0  0  0  0
  1  2  1  0  0  0  0
  1 99  1  0  0  0  0
  1100  1  0  0  0  0
  1101  1  0  0  0  0
  2  3  1  0  0  0  0
  2102  1  0  0  0  0
  2103  1  0  0  0  0
  3  4  2  0  0  0  0
  3 16  1  0  0  0  0
  4  5  1  0  0  0  0
  4 17  1  0  0  0  0
  5  6  2  0  0  0  0
  5104  1  0  0  0  0
  6  7  1  0  0  0  0
  6 15  1  0  0  0  0
  7  8  2  0  0  0  0
  7105  1  0  0  0  0
  8  9  1  0  0  0  0
  8 13  1  0  0  0  0
  9 10  2  0  0  0  0
  9106  1  0  0  0  0
 10 11  1  0  0  0  0
 10107  1  0  0  0  0
 11 12  2  0  0  0  0
 11108  1  0  0  0  0
 12 13  1  0  0  0  0
 12109  1  0  0  0  0
 13 14  2  0  0  0  0
 14 15  1  0  0  0  0
 14110  1  0  0  0  0
 15 16  2  0  0  0  0
 17 18  2  0  0  0  0
 17 19  1  0  0  0  0
 19 20  1  0  0  0  0
 19 21  1  0  0  0  0
 20111  1  0  0  0  0
 20112  1  0  0  0  0
 20113  1  0  0  0  0
 21 22  1  0  0  0  0
 21 73  1  0  0  0  0
 21114  1  1  0  0  0
 22 23  1  0  0  0  0
 22115  1  0  0  0  0
 22116  1  0  0  0  0
 23 24  2  0  0  0  0
 23117  1  0  0  0  0
 24 25  1  0  0  0  0
 24118  1  0  0  0  0
 25119  1  0  0  0  0
 25120  1  0  0  0  0
 26 47  1  0  0  0  0
 26 27  1  0  0  0  0
 26 25  1  0  0  0  0
 26121  1  1  0  0  0
 27 28  1  0  0  0  0
 27 29  1  0  0  0  0
 28122  1  0  0  0  0
 28123  1  0  0  0  0
 28124  1  0  0  0  0
 29 30  2  0  0  0  0
 29 31  1  0  0  0  0
 31 32  2  0  0  0  0
 31 46  1  0  0  0  0
 32 33  1  0  0  0  0
 32 35  1  0  0  0  0
 33 34  1  0  0  0  0
 33125  1  0  0  0  0
 33126  1  0  0  0  0
 34127  1  0  0  0  0
 34128  1  0  0  0  0
 34129  1  0  0  0  0
 35 36  2  0  0  0  0
 36 37  1  0  0  0  0
 36 45  1  0  0  0  0
 37 38  2  0  0  0  0
 37130  1  0  0  0  0
 38 39  1  0  0  0  0
 38 43  1  0  0  0  0
 39 40  2  0  0  0  0
 39131  1  0  0  0  0
 40 41  1  0  0  0  0
 40132  1  0  0  0  0
 41 42  2  0  0  0  0
 41133  1  0  0  0  0
 42 43  1  0  0  0  0
 42134  1  0  0  0  0
 43 44  2  0  0  0  0
 44 45  1  0  0  0  0
 44135  1  0  0  0  0
 45 46  2  0  0  0  0
 46136  1  0  0  0  0
 47 48  2  0  0  0  0
 47 49  1  0  0  0  0
 49 50  1  0  0  0  0
 49 53  1  0  0  0  0
 50 51  1  0  0  0  0
 50137  1  0  0  0  0
 50138  1  0  0  0  0
 51 52  1  0  0  0  0
 51139  1  0  0  0  0
 51140  1  0  0  0  0
 52 53  1  0  0  0  0
 52141  1  0  0  0  0
 52142  1  0  0  0  0
 53 54  1  0  0  0  0
 53143  1  1  0  0  0
 54 55  2  0  0  0  0
 54 56  1  0  0  0  0
 56 57  1  0  0  0  0
 56 58  1  0  0  0  0
 57144  1  0  0  0  0
 57145  1  0  0  0  0
 57146  1  0  0  0  0
 58 59  1  0  0  0  0
 58 66  1  0  0  0  0
 58147  1  6  0  0  0
 59 60  1  0  0  0  0
 59148  1  0  0  0  0
 59149  1  0  0  0  0
 60 61  2  0  0  0  0
 60 65  1  0  0  0  0
 61 62  1  0  0  0  0
 61150  1  0  0  0  0
 62 63  2  0  0  0  0
 62151  1  0  0  0  0
 63 64  1  0  0  0  0
 63152  1  0  0  0  0
 64 65  2  0  0  0  0
 64153  1  0  0  0  0
 65154  1  0  0  0  0
 66 67  2  0  0  0  0
 66 68  1  0  0  0  0
 68 69  1  0  0  0  0
 68155  1  0  0  0  0
 69 70  1  0  0  0  0
 69156  1  0  0  0  0
 69157  1  0  0  0  0
 70 71  1  0  0  0  0
 70158  1  0  0  0  0
 70159  1  0  0  0  0
 71 72  1  0  0  0  0
 71160  1  0  0  0  0
 71161  1  0  0  0  0
 72162  1  0  0  0  0
 72163  1  0  0  0  0
 72164  1  0  0  0  0
 73 74  2  0  0  0  0
 73 75  1  0  0  0  0
 75 76  1  0  0  0  0
 75 79  1  0  0  0  0
 76 77  1  0  0  0  0
 76165  1  0  0  0  0
 76166  1  0  0  0  0
 77 78  1  0  0  0  0
 77167  1  0  0  0  0
 77168  1  0  0  0  0
 78 79  1  0  0  0  0
 78169  1  0  0  0  0
 78170  1  0  0  0  0
 79 80  1  0  0  0  0
 79171  1  1  0  0  0
 80 81  2  0  0  0  0
 80 82  1  0  0  0  0
 82 83  1  0  0  0  0
 82 84  1  0  0  0  0
 83172  1  0  0  0  0
 83173  1  0  0  0  0
 83174  1  0  0  0  0
 84 85  1  0  0  0  0
 84 92  1  0  0  0  0
 84175  1  1  0  0  0
 85 86  1  0  0  0  0
 85176  1  0  0  0  0
 85177  1  0  0  0  0
 86 87  2  0  0  0  0
 86 91  1  0  0  0  0
 87 88  1  0  0  0  0
 87178  1  0  0  0  0
 88 89  2  0  0  0  0
 88179  1  0  0  0  0
 89 90  1  0  0  0  0
 89180  1  0  0  0  0
 90 91  2  0  0  0  0
 90181  1  0  0  0  0
 91182  1  0  0  0  0
 92 93  2  0  0  0  0
 92 94  1  0  0  0  0
 94 95  1  0  0  0  0
 94183  1  0  0  0  0
 95 96  1  0  0  0  0
 95184  1  0  0  0  0
 95185  1  0  0  0  0
 96 97  1  0  0  0  0
 96186  1  0  0  0  0
 96187  1  0  0  0  0
 97 98  1  0  0  0  0
 97188  1  0  0  0  0
 97189  1  0  0  0  0
 98190  1  0  0  0  0
 98191  1  0  0  0  0
 98192  1  0  0  0  0
M  CHG  2  72   1  98   1
M  END
$$$$
Target_lig_652
 OpenBabel04172516573D

184191  0  0  1  0  0  0  0  0999 V2000
    8.7072    3.2306   -8.6888 C   0  0  0  0  0  0  0  0  0  0  0  0
    8.3359    3.6361   -7.2641 C   0  0  0  0  0  0  0  0  0  0  0  0
    9.1780    2.9969   -6.1844 C   0  0  0  0  0  0  0  0  0  0  0  0
    8.7519    2.8623   -4.8627 C   0  0  0  0  0  0  0  0  0  0  0  0
    9.6993    2.4282   -3.9256 C   0  0  0  0  0  0  0  0  0  0  0  0
   11.0296    2.1787   -4.2952 C   0  0  0  0  0  0  0  0  0  0  0  0
   12.0344    1.8972   -3.3528 C   0  0  0  0  0  0  0  0  0  0  0  0
   13.3892    1.9124   -3.7258 C   0  0  0  0  0  0  0  0  0  0  0  0
   14.4287    1.8699   -2.7806 C   0  0  0  0  0  0  0  0  0  0  0  0
   15.7608    2.0281   -3.1741 C   0  0  0  0  0  0  0  0  0  0  0  0
   16.0753    2.1604   -4.5217 C   0  0  0  0  0  0  0  0  0  0  0  0
   15.0597    2.1401   -5.4761 C   0  0  0  0  0  0  0  0  0  0  0  0
   13.7144    2.0537   -5.0883 C   0  0  0  0  0  0  0  0  0  0  0  0
   12.6846    2.1825   -6.0292 C   0  0  0  0  0  0  0  0  0  0  0  0
   11.3611    2.3216   -5.6454 C   0  0  0  0  0  0  0  0  0  0  0  0
   10.4510    2.6885   -6.5561 N   0  0  0  0  0  0  0  0  0  0  0  0
    7.4246    3.3555   -4.3828 C   0  0  0  0  0  0  0  0  0  0  0  0
    6.9939    4.4302   -4.8036 O   0  0  0  0  0  0  0  0  0  0  0  0
    6.7613    2.6719   -3.3733 N   0  0  0  0  0  0  0  0  0  0  0  0
    6.9960    1.3273   -2.8712 C   0  0  0  0  0  0  0  0  0  0  0  0
    5.6045    0.7771   -2.6355 C   0  0  0  0  0  0  0  0  0  0  0  0
    4.7673    1.9933   -2.2415 C   0  0  0  0  0  0  0  0  0  0  0  0
    5.5570    3.2194   -2.7301 C   0  0  1  0  0  0  0  0  0  0  0  0
    5.9148    4.1418   -1.5251 C   0  0  0  0  0  0  0  0  0  0  0  0
    5.0540    4.6356   -0.7981 O   0  0  0  0  0  0  0  0  0  0  0  0
    7.2599    4.3970   -1.3301 N   0  0  0  0  0  0  0  0  0  0  0  0
    7.7465    5.3591   -0.3414 C   0  0  1  0  0  0  0  0  0  0  0  0
    8.7863    4.7298    0.6803 C   0  0  0  0  0  0  0  0  0  0  0  0
   10.1268    4.1303    0.2489 C   0  0  0  0  0  0  0  0  0  0  0  0
   10.9167    3.1621    0.7991 C   0  0  0  0  0  0  0  0  0  0  0  0
   10.7610    2.2989    2.0728 C   0  0  0  0  0  0  0  0  0  0  0  0
   11.6825    1.0014    2.3616 C   0  0  2  0  0  0  0  0  0  0  0  0
   11.4802    0.5066    3.7767 N   0  0  0  0  0  0  0  0  0  0  0  0
   11.6673   -0.8287    4.2066 C   0  0  0  0  0  0  0  0  0  0  0  0
   12.0838   -1.6910    3.4313 O   0  0  0  0  0  0  0  0  0  0  0  0
   11.4664   -1.0945    5.7739 C   0  0  2  0  0  0  0  0  0  0  0  0
   12.8182   -0.7352    6.4306 C   0  0  0  0  0  0  0  0  0  0  0  0
   12.7192   -1.2276    7.8651 C   0  0  0  0  0  0  0  0  0  0  0  0
   11.7765   -2.4103    7.7915 C   0  0  0  0  0  0  0  0  0  0  0  0
   11.2029   -2.4202    6.4438 N   0  0  0  0  0  0  0  0  0  0  0  0
   10.1300   -3.2683    6.0841 C   0  0  0  0  0  0  0  0  0  0  0  0
    9.4704   -3.0075    5.0805 O   0  0  0  0  0  0  0  0  0  0  0  0
    9.7652   -4.4673    6.9897 C   0  0  0  0  0  0  0  0  0  0  0  0
    8.4505   -4.8836    7.2344 C   0  0  0  0  0  0  0  0  0  0  0  0
    7.2507   -4.5030    6.4062 C   0  0  0  0  0  0  0  0  0  0  0  0
    6.6045   -3.2005    6.8430 C   0  0  0  0  0  0  0  0  0  0  0  0
    8.1186   -5.7142    8.2765 N   0  0  0  0  0  0  0  0  0  0  0  0
    9.0762   -6.1502    9.1118 C   0  0  0  0  0  0  0  0  0  0  0  0
    8.6880   -6.7862   10.2866 C   0  0  0  0  0  0  0  0  0  0  0  0
    9.6056   -7.1317   11.2956 C   0  0  0  0  0  0  0  0  0  0  0  0
    9.1553   -7.6111   12.5387 C   0  0  0  0  0  0  0  0  0  0  0  0
   10.0507   -7.9124   13.5629 C   0  0  0  0  0  0  0  0  0  0  0  0
   11.4158   -7.7804   13.3412 C   0  0  0  0  0  0  0  0  0  0  0  0
   11.8825   -7.3150   12.1007 C   0  0  0  0  0  0  0  0  0  0  0  0
   10.9798   -6.9521   11.0676 C   0  0  0  0  0  0  0  0  0  0  0  0
   11.3868   -6.3838    9.8313 C   0  0  0  0  0  0  0  0  0  0  0  0
   10.4265   -5.9263    8.8801 C   0  0  0  0  0  0  0  0  0  0  0  0
   10.7533   -5.1647    7.7296 C   0  0  0  0  0  0  0  0  0  0  0  0
   13.2043    1.2651    2.1070 C   0  0  0  0  0  0  0  0  0  0  0  0
   14.0186    0.4109    1.7358 O   0  0  0  0  0  0  0  0  0  0  0  0
   13.6169    2.5343    2.4511 N   0  0  0  0  0  0  0  0  0  0  0  0
   14.9998    3.0111    2.4393 C   0  0  1  0  0  0  0  0  0  0  0  0
   14.9898    4.5327    2.7326 C   0  0  0  0  0  0  0  0  0  0  0  0
   14.4198    4.8061    4.1360 C   0  0  0  0  0  0  0  0  0  0  0  0
   14.2969    6.2732    4.5244 C   0  0  0  0  0  0  0  0  0  0  0  0
   13.6663    6.3335    5.9158 C   0  0  0  0  0  0  0  0  0  0  0  0
   13.5578    7.7278    6.3758 N   0  3  0  0  0  0  0  0  0  0  0  0
   15.8214    2.2820    3.5265 C   0  0  0  0  0  0  0  0  0  0  0  0
   15.3064    1.5515    4.3721 O   0  0  0  0  0  0  0  0  0  0  0  0
   17.1805    2.5452    3.5174 N   0  0  0  0  0  0  0  0  0  0  0  0
   18.0597    1.9260    4.4916 C   0  0  0  0  0  0  0  0  0  0  0  0
   18.1587    0.4098    4.3008 C   0  0  0  0  0  0  0  0  0  0  0  0
   18.6668    0.0580    2.9108 C   0  0  0  0  0  0  0  0  0  0  0  0
   18.7019   -1.4120    2.7466 N   0  3  0  0  0  0  0  0  0  0  0  0
    8.1900    6.6690   -1.0942 C   0  0  0  0  0  0  0  0  0  0  0  0
    9.3554    6.8895   -1.4077 O   0  0  0  0  0  0  0  0  0  0  0  0
    7.1601    7.5273   -1.4959 N   0  0  0  0  0  0  0  0  0  0  0  0
    7.4005    8.7421   -2.3124 C   0  0  1  0  0  0  0  0  0  0  0  0
    6.1607    9.0825   -3.1885 C   0  0  0  0  0  0  0  0  0  0  0  0
    5.7854    7.9346   -4.1309 C   0  0  0  0  0  0  0  0  0  0  0  0
    4.5772    8.2227   -5.0341 C   0  0  0  0  0  0  0  0  0  0  0  0
    4.3138    7.0002   -5.9143 C   0  0  0  0  0  0  0  0  0  0  0  0
    3.1399    7.2225   -6.7869 N   0  3  0  0  0  0  0  0  0  0  0  0
    7.7549    9.9780   -1.4162 C   0  0  0  0  0  0  0  0  0  0  0  0
    7.7131    9.9665   -0.1922 O   0  0  0  0  0  0  0  0  0  0  0  0
    8.0225   11.1622   -2.0956 N   0  0  0  0  0  0  0  0  0  0  0  0
    8.3634   12.4019   -1.4055 C   0  0  0  0  0  0  0  0  0  0  0  0
    7.1426   13.2336   -0.9900 C   0  0  0  0  0  0  0  0  0  0  0  0
    6.1323   12.5272   -0.0915 C   0  0  0  0  0  0  0  0  0  0  0  0
    6.7671   12.0411    1.1530 N   0  3  0  0  0  0  0  0  0  0  0  0
    8.0322    3.7159   -9.4016 H   0  0  0  0  0  0  0  0  0  0  0  0
    8.6264    2.1473   -8.8253 H   0  0  0  0  0  0  0  0  0  0  0  0
    9.7289    3.5308   -8.9473 H   0  0  0  0  0  0  0  0  0  0  0  0
    7.2815    3.3875   -7.1163 H   0  0  0  0  0  0  0  0  0  0  0  0
    8.4482    4.7241   -7.1728 H   0  0  0  0  0  0  0  0  0  0  0  0
    9.4400    2.3668   -2.8734 H   0  0  0  0  0  0  0  0  0  0  0  0
   11.7724    1.7540   -2.3073 H   0  0  0  0  0  0  0  0  0  0  0  0
   14.2047    1.7676   -1.7234 H   0  0  0  0  0  0  0  0  0  0  0  0
   16.5554    2.0640   -2.4349 H   0  0  0  0  0  0  0  0  0  0  0  0
   17.1077    2.2956   -4.8351 H   0  0  0  0  0  0  0  0  0  0  0  0
   15.3241    2.2491   -6.5269 H   0  0  0  0  0  0  0  0  0  0  0  0
   12.9248    2.2847   -7.0857 H   0  0  0  0  0  0  0  0  0  0  0  0
    7.5220    1.4346   -1.9151 H   0  0  0  0  0  0  0  0  0  0  0  0
    7.5864    0.7130   -3.5520 H   0  0  0  0  0  0  0  0  0  0  0  0
    5.5930   -0.0042   -1.8694 H   0  0  0  0  0  0  0  0  0  0  0  0
    5.2133    0.3443   -3.5636 H   0  0  0  0  0  0  0  0  0  0  0  0
    4.5972    2.0067   -1.1594 H   0  0  0  0  0  0  0  0  0  0  0  0
    3.7805    1.9370   -2.7180 H   0  0  0  0  0  0  0  0  0  0  0  0
    4.9769    3.8161   -3.4447 H   0  0  0  0  0  0  0  0  0  0  0  0
    7.8700    4.1576   -2.1022 H   0  0  0  0  0  0  0  0  0  0  0  0
    6.8920    5.6643    0.2778 H   0  0  0  0  0  0  0  0  0  0  0  0
    8.2503    3.9640    1.2549 H   0  0  0  0  0  0  0  0  0  0  0  0
    9.0318    5.5422    1.3765 H   0  0  0  0  0  0  0  0  0  0  0  0
   10.5427    4.6384   -0.6269 H   0  0  0  0  0  0  0  0  0  0  0  0
   11.8711    3.0153    0.2855 H   0  0  0  0  0  0  0  0  0  0  0  0
    9.7190    1.9670    2.1334 H   0  0  0  0  0  0  0  0  0  0  0  0
   10.9073    2.9831    2.9194 H   0  0  0  0  0  0  0  0  0  0  0  0
   11.3899    0.1978    1.6740 H   0  0  0  0  0  0  0  0  0  0  0  0
   11.2090    1.1754    4.4827 H   0  0  0  0  0  0  0  0  0  0  0  0
   10.6881   -0.4064    6.1350 H   0  0  0  0  0  0  0  0  0  0  0  0
   13.0735    0.3258    6.3789 H   0  0  0  0  0  0  0  0  0  0  0  0
   13.6222   -1.2927    5.9287 H   0  0  0  0  0  0  0  0  0  0  0  0
   12.3293   -0.4587    8.5385 H   0  0  0  0  0  0  0  0  0  0  0  0
   13.6951   -1.5421    8.2556 H   0  0  0  0  0  0  0  0  0  0  0  0
   10.9810   -2.3432    8.5441 H   0  0  0  0  0  0  0  0  0  0  0  0
   12.3679   -3.3055    7.9613 H   0  0  0  0  0  0  0  0  0  0  0  0
    6.5004   -5.2983    6.5059 H   0  0  0  0  0  0  0  0  0  0  0  0
    7.5017   -4.4865    5.3399 H   0  0  0  0  0  0  0  0  0  0  0  0
    6.2831   -3.2507    7.8889 H   0  0  0  0  0  0  0  0  0  0  0  0
    5.7192   -3.0017    6.2300 H   0  0  0  0  0  0  0  0  0  0  0  0
    7.2895   -2.3549    6.7382 H   0  0  0  0  0  0  0  0  0  0  0  0
    7.6273   -6.9689   10.4399 H   0  0  0  0  0  0  0  0  0  0  0  0
    8.0870   -7.7252   12.7229 H   0  0  0  0  0  0  0  0  0  0  0  0
    9.6857   -8.2501   14.5294 H   0  0  0  0  0  0  0  0  0  0  0  0
   12.1185   -8.0353   14.1315 H   0  0  0  0  0  0  0  0  0  0  0  0
   12.9575   -7.2240   11.9613 H   0  0  0  0  0  0  0  0  0  0  0  0
   12.4466   -6.2197    9.6628 H   0  0  0  0  0  0  0  0  0  0  0  0
   11.7945   -5.0664    7.4533 H   0  0  0  0  0  0  0  0  0  0  0  0
   12.9045    3.1531    2.7773 H   0  0  0  0  0  0  0  0  0  0  0  0
   15.4372    2.7936    1.4606 H   0  0  0  0  0  0  0  0  0  0  0  0
   14.3780    5.0414    1.9773 H   0  0  0  0  0  0  0  0  0  0  0  0
   16.0019    4.9459    2.6573 H   0  0  0  0  0  0  0  0  0  0  0  0
   15.0478    4.3088    4.8835 H   0  0  0  0  0  0  0  0  0  0  0  0
   13.4227    4.3619    4.2264 H   0  0  0  0  0  0  0  0  0  0  0  0
   13.6720    6.8055    3.7976 H   0  0  0  0  0  0  0  0  0  0  0  0
   15.2857    6.7448    4.5255 H   0  0  0  0  0  0  0  0  0  0  0  0
   14.2688    5.7963    6.6552 H   0  0  0  0  0  0  0  0  0  0  0  0
   12.6531    5.9163    5.9110 H   0  0  0  0  0  0  0  0  0  0  0  0
   14.4816    8.1718    6.4724 H   0  0  0  0  0  0  0  0  0  0  0  0
   13.1156    7.7729    7.3062 H   0  0  0  0  0  0  0  0  0  0  0  0
   12.9944    8.3121    5.7456 H   0  0  0  0  0  0  0  0  0  0  0  0
   17.5365    3.3296    2.9808 H   0  0  0  0  0  0  0  0  0  0  0  0
   17.6788    2.1568    5.4932 H   0  0  0  0  0  0  0  0  0  0  0  0
   19.0455    2.3919    4.3882 H   0  0  0  0  0  0  0  0  0  0  0  0
   17.1801   -0.0584    4.4597 H   0  0  0  0  0  0  0  0  0  0  0  0
   18.8268   -0.0032    5.0652 H   0  0  0  0  0  0  0  0  0  0  0  0
   19.6831    0.4287    2.7478 H   0  0  0  0  0  0  0  0  0  0  0  0
   18.0121    0.4391    2.1209 H   0  0  0  0  0  0  0  0  0  0  0  0
   19.3260   -1.8713    3.4244 H   0  0  0  0  0  0  0  0  0  0  0  0
   19.0321   -1.6735    1.8074 H   0  0  0  0  0  0  0  0  0  0  0  0
   17.7628   -1.8240    2.8548 H   0  0  0  0  0  0  0  0  0  0  0  0
    6.2527    7.4127   -1.0540 H   0  0  0  0  0  0  0  0  0  0  0  0
    8.2641    8.5554   -2.9606 H   0  0  0  0  0  0  0  0  0  0  0  0
    6.3597    9.9778   -3.7936 H   0  0  0  0  0  0  0  0  0  0  0  0
    5.3066    9.3348   -2.5467 H   0  0  0  0  0  0  0  0  0  0  0  0
    5.5626    7.0419   -3.5367 H   0  0  0  0  0  0  0  0  0  0  0  0
    6.6511    7.7001   -4.7616 H   0  0  0  0  0  0  0  0  0  0  0  0
    4.7689    9.1050   -5.6576 H   0  0  0  0  0  0  0  0  0  0  0  0
    3.6947    8.4466   -4.4217 H   0  0  0  0  0  0  0  0  0  0  0  0
    4.0955    6.1140   -5.3107 H   0  0  0  0  0  0  0  0  0  0  0  0
    5.1628    6.7930   -6.5724 H   0  0  0  0  0  0  0  0  0  0  0  0
    2.2681    7.3587   -6.2577 H   0  0  0  0  0  0  0  0  0  0  0  0
    2.9869    6.4007   -7.3912 H   0  0  0  0  0  0  0  0  0  0  0  0
    3.2578    8.0273   -7.4168 H   0  0  0  0  0  0  0  0  0  0  0  0
    8.1522   11.1499   -3.1030 H   0  0  0  0  0  0  0  0  0  0  0  0
    8.9869   12.9941   -2.0852 H   0  0  0  0  0  0  0  0  0  0  0  0
    8.9774   12.1643   -0.5306 H   0  0  0  0  0  0  0  0  0  0  0  0
    6.6157   13.5677   -1.8927 H   0  0  0  0  0  0  0  0  0  0  0  0
    7.4934   14.1416   -0.4834 H   0  0  0  0  0  0  0  0  0  0  0  0
    5.6852   11.6600   -0.5845 H   0  0  0  0  0  0  0  0  0  0  0  0
    5.3263   13.2035    0.2063 H   0  0  0  0  0  0  0  0  0  0  0  0
    7.4768   11.3165    0.9210 H   0  0  0  0  0  0  0  0  0  0  0  0
    6.0812   11.5563    1.7469 H   0  0  0  0  0  0  0  0  0  0  0  0
    7.1931   12.7850    1.7089 H   0  0  0  0  0  0  0  0  0  0  0  0
  1  2  1  0  0  0  0
  1 91  1  0  0  0  0
  1 92  1  0  0  0  0
  1 93  1  0  0  0  0
  2  3  1  0  0  0  0
  2 94  1  0  0  0  0
  2 95  1  0  0  0  0
  3  4  2  0  0  0  0
  3 16  1  0  0  0  0
  4  5  1  0  0  0  0
  4 17  1  0  0  0  0
  5  6  2  0  0  0  0
  5 96  1  0  0  0  0
  6  7  1  0  0  0  0
  6 15  1  0  0  0  0
  7  8  2  0  0  0  0
  7 97  1  0  0  0  0
  8  9  1  0  0  0  0
  8 13  1  0  0  0  0
  9 10  2  0  0  0  0
  9 98  1  0  0  0  0
 10 11  1  0  0  0  0
 10 99  1  0  0  0  0
 11 12  2  0  0  0  0
 11100  1  0  0  0  0
 12 13  1  0  0  0  0
 12101  1  0  0  0  0
 13 14  2  0  0  0  0
 14 15  1  0  0  0  0
 14102  1  0  0  0  0
 15 16  2  0  0  0  0
 17 18  2  0  0  0  0
 17 19  1  0  0  0  0
 19 20  1  0  0  0  0
 19 23  1  0  0  0  0
 20 21  1  0  0  0  0
 20103  1  0  0  0  0
 20104  1  0  0  0  0
 21 22  1  0  0  0  0
 21105  1  0  0  0  0
 21106  1  0  0  0  0
 22 23  1  0  0  0  0
 22107  1  0  0  0  0
 22108  1  0  0  0  0
 23 24  1  0  0  0  0
 23109  1  6  0  0  0
 24 25  2  0  0  0  0
 24 26  1  0  0  0  0
 26 27  1  0  0  0  0
 26110  1  0  0  0  0
 27 28  1  0  0  0  0
 27 75  1  0  0  0  0
 27111  1  1  0  0  0
 28 29  1  0  0  0  0
 28112  1  0  0  0  0
 28113  1  0  0  0  0
 29 30  2  0  0  0  0
 29114  1  0  0  0  0
 30 31  1  0  0  0  0
 30115  1  0  0  0  0
 31116  1  0  0  0  0
 31117  1  0  0  0  0
 32 59  1  0  0  0  0
 32 33  1  0  0  0  0
 32 31  1  0  0  0  0
 32118  1  6  0  0  0
 33 34  1  0  0  0  0
 33119  1  0  0  0  0
 34 35  2  0  0  0  0
 34 36  1  0  0  0  0
 36 37  1  0  0  0  0
 36 40  1  0  0  0  0
 36120  1  1  0  0  0
 37 38  1  0  0  0  0
 37121  1  0  0  0  0
 37122  1  0  0  0  0
 38 39  1  0  0  0  0
 38123  1  0  0  0  0
 38124  1  0  0  0  0
 39 40  1  0  0  0  0
 39125  1  0  0  0  0
 39126  1  0  0  0  0
 40 41  1  0  0  0  0
 41 42  2  0  0  0  0
 41 43  1  0  0  0  0
 43 44  2  0  0  0  0
 43 58  1  0  0  0  0
 44 45  1  0  0  0  0
 44 47  1  0  0  0  0
 45 46  1  0  0  0  0
 45127  1  0  0  0  0
 45128  1  0  0  0  0
 46129  1  0  0  0  0
 46130  1  0  0  0  0
 46131  1  0  0  0  0
 47 48  2  0  0  0  0
 48 49  1  0  0  0  0
 48 57  1  0  0  0  0
 49 50  2  0  0  0  0
 49132  1  0  0  0  0
 50 51  1  0  0  0  0
 50 55  1  0  0  0  0
 51 52  2  0  0  0  0
 51133  1  0  0  0  0
 52 53  1  0  0  0  0
 52134  1  0  0  0  0
 53 54  2  0  0  0  0
 53135  1  0  0  0  0
 54 55  1  0  0  0  0
 54136  1  0  0  0  0
 55 56  2  0  0  0  0
 56 57  1  0  0  0  0
 56137  1  0  0  0  0
 57 58  2  0  0  0  0
 58138  1  0  0  0  0
 59 60  2  0  0  0  0
 59 61  1  0  0  0  0
 61 62  1  0  0  0  0
 61139  1  0  0  0  0
 62 63  1  0  0  0  0
 62 68  1  0  0  0  0
 62140  1  6  0  0  0
 63 64  1  0  0  0  0
 63141  1  0  0  0  0
 63142  1  0  0  0  0
 64 65  1  0  0  0  0
 64143  1  0  0  0  0
 64144  1  0  0  0  0
 65 66  1  0  0  0  0
 65145  1  0  0  0  0
 65146  1  0  0  0  0
 66 67  1  0  0  0  0
 66147  1  0  0  0  0
 66148  1  0  0  0  0
 67149  1  0  0  0  0
 67150  1  0  0  0  0
 67151  1  0  0  0  0
 68 69  2  0  0  0  0
 68 70  1  0  0  0  0
 70 71  1  0  0  0  0
 70152  1  0  0  0  0
 71 72  1  0  0  0  0
 71153  1  0  0  0  0
 71154  1  0  0  0  0
 72 73  1  0  0  0  0
 72155  1  0  0  0  0
 72156  1  0  0  0  0
 73 74  1  0  0  0  0
 73157  1  0  0  0  0
 73158  1  0  0  0  0
 74159  1  0  0  0  0
 74160  1  0  0  0  0
 74161  1  0  0  0  0
 75 76  2  0  0  0  0
 75 77  1  0  0  0  0
 77 78  1  0  0  0  0
 77162  1  0  0  0  0
 78 79  1  0  0  0  0
 78 84  1  0  0  0  0
 78163  1  6  0  0  0
 79 80  1  0  0  0  0
 79164  1  0  0  0  0
 79165  1  0  0  0  0
 80 81  1  0  0  0  0
 80166  1  0  0  0  0
 80167  1  0  0  0  0
 81 82  1  0  0  0  0
 81168  1  0  0  0  0
 81169  1  0  0  0  0
 82 83  1  0  0  0  0
 82170  1  0  0  0  0
 82171  1  0  0  0  0
 83172  1  0  0  0  0
 83173  1  0  0  0  0
 83174  1  0  0  0  0
 84 85  2  0  0  0  0
 84 86  1  0  0  0  0
 86 87  1  0  0  0  0
 86175  1  0  0  0  0
 87 88  1  0  0  0  0
 87176  1  0  0  0  0
 87177  1  0  0  0  0
 88 89  1  0  0  0  0
 88178  1  0  0  0  0
 88179  1  0  0  0  0
 89 90  1  0  0  0  0
 89180  1  0  0  0  0
 89181  1  0  0  0  0
 90182  1  0  0  0  0
 90183  1  0  0  0  0
 90184  1  0  0  0  0
M  CHG  4  67   1  74   1  83   1  90   1
M  END
$$$$
Target_lig_655
 OpenBabel04172516573D

180189  0  0  1  0  0  0  0  0999 V2000
   11.2365   -6.6142    4.5498 C   0  0  0  0  0  0  0  0  0  0  0  0
   11.1375   -5.2482    5.3154 C   0  0  0  0  0  0  0  0  0  0  0  0
    9.8424   -4.4053    5.7609 C   0  0  0  0  0  0  0  0  0  0  0  0
    9.8495   -2.9873    5.5982 C   0  0  0  0  0  0  0  0  0  0  0  0
    8.6741   -2.1387    5.3963 C   0  0  0  0  0  0  0  0  0  0  0  0
    7.3479   -2.5740    5.5196 C   0  0  0  0  0  0  0  0  0  0  0  0
    5.6418   -1.7530    5.4246 C   0  0  0  0  0  0  0  0  0  0  0  0
    4.1325   -2.7514    5.8085 C   0  0  0  0  0  0  0  0  0  0  0  0
    2.7705   -2.4357    5.9828 C   0  0  0  0  0  0  0  0  0  0  0  0
    1.7201   -3.3913    5.8260 C   0  0  0  0  0  0  0  0  0  0  0  0
    1.9453   -4.6824    5.3617 C   0  0  0  0  0  0  0  0  0  0  0  0
    3.2124   -5.2213    5.5180 C   0  0  0  0  0  0  0  0  0  0  0  0
    4.2881   -4.4637    6.0633 C   0  0  0  0  0  0  0  0  0  0  0  0
    5.9023   -5.1877    6.2708 C   0  0  0  0  0  0  0  0  0  0  0  0
    7.4998   -4.3085    6.0837 C   0  0  0  0  0  0  0  0  0  0  0  0
    8.6771   -5.0344    6.0750 N   0  0  0  0  0  0  0  0  0  0  0  0
   11.1025   -2.3454    6.0129 C   0  0  0  0  0  0  0  0  0  0  0  0
   12.0956   -2.9955    6.2952 O   0  0  0  0  0  0  0  0  0  0  0  0
   10.9936   -1.0060    6.1809 N   0  0  0  0  0  0  0  0  0  0  0  0
   12.1422   -0.1933    6.4556 C   0  0  1  0  0  0  0  0  0  0  0  0
   13.1327   -0.3684    5.2755 C   0  0  0  0  0  0  0  0  0  0  0  0
   12.6882   -0.1501    3.8282 C   0  0  0  0  0  0  0  0  0  0  0  0
   11.5012    0.2646    3.3443 C   0  0  0  0  0  0  0  0  0  0  0  0
   11.2514    0.6060    1.8941 C   0  0  0  0  0  0  0  0  0  0  0  0
    9.9022    1.3082    1.5653 C   0  0  2  0  0  0  0  0  0  0  0  0
    9.7823    2.5882    2.2726 N   0  0  0  0  0  0  0  0  0  0  0  0
   10.4581    3.7126    1.8129 C   0  0  0  0  0  0  0  0  0  0  0  0
   11.1510    3.6576    0.8024 O   0  0  0  0  0  0  0  0  0  0  0  0
   10.2952    4.9873    2.5790 C   0  0  0  0  0  0  0  0  0  0  0  0
   10.4543    6.2508    1.9851 C   0  0  0  0  0  0  0  0  0  0  0  0
   10.8267    6.4243    0.5260 C   0  0  0  0  0  0  0  0  0  0  0  0
   10.8932    7.8661    0.0225 C   0  0  0  0  0  0  0  0  0  0  0  0
   10.3107    7.4059    2.6986 N   0  0  0  0  0  0  0  0  0  0  0  0
   10.0661    7.3520    4.0181 C   0  0  0  0  0  0  0  0  0  0  0  0
   10.0534    8.5186    4.7703 C   0  0  0  0  0  0  0  0  0  0  0  0
    9.9838    8.4918    6.1744 C   0  0  0  0  0  0  0  0  0  0  0  0
   10.1685    9.6505    6.9428 C   0  0  0  0  0  0  0  0  0  0  0  0
   10.2226    9.5772    8.3361 C   0  0  0  0  0  0  0  0  0  0  0  0
   10.0344    8.3575    8.9805 C   0  0  0  0  0  0  0  0  0  0  0  0
    9.7872    7.2077    8.2333 C   0  0  0  0  0  0  0  0  0  0  0  0
    9.7891    7.2604    6.8316 C   0  0  0  0  0  0  0  0  0  0  0  0
    9.6727    6.0983    6.0674 C   0  0  0  0  0  0  0  0  0  0  0  0
    9.8887    6.1305    4.6835 C   0  0  0  0  0  0  0  0  0  0  0  0
   10.0025    4.9473    3.9465 C   0  0  0  0  0  0  0  0  0  0  0  0
    8.6396    0.4123    1.8381 C   0  0  0  0  0  0  0  0  0  0  0  0
    8.3951   -0.0088    2.9765 O   0  0  0  0  0  0  0  0  0  0  0  0
    7.7518    0.1376    0.8118 N   0  0  0  0  0  0  0  0  0  0  0  0
    7.8840    0.3961   -0.6085 C   0  0  0  0  0  0  0  0  0  0  0  0
    6.5450    1.0240   -0.9637 C   0  0  0  0  0  0  0  0  0  0  0  0
    5.5268    0.3856   -0.0132 C   0  0  0  0  0  0  0  0  0  0  0  0
    6.3850   -0.3766    1.0182 C   0  0  1  0  0  0  0  0  0  0  0  0
    6.3634   -1.8578    0.5557 C   0  0  0  0  0  0  0  0  0  0  0  0
    5.8452   -2.2373   -0.4915 O   0  0  0  0  0  0  0  0  0  0  0  0
    7.0431   -2.7778    1.2813 N   0  0  0  0  0  0  0  0  0  0  0  0
    6.9460   -4.2061    0.8945 C   0  0  1  0  0  0  0  0  0  0  0  0
    5.5741   -4.8750    0.6379 C   0  0  0  0  0  0  0  0  0  0  0  0
    4.2452   -4.1867    0.8994 C   0  0  0  0  0  0  0  0  0  0  0  0
    3.3765   -4.2653   -0.1730 C   0  0  0  0  0  0  0  0  0  0  0  0
    2.1889   -3.5471   -0.1941 C   0  0  0  0  0  0  0  0  0  0  0  0
    1.7690   -2.8120    0.9067 C   0  0  0  0  0  0  0  0  0  0  0  0
    2.5428   -2.8035    2.0436 C   0  0  0  0  0  0  0  0  0  0  0  0
    3.7669   -3.4846    2.0171 C   0  0  0  0  0  0  0  0  0  0  0  0
    8.2956   -4.9319    0.8928 C   0  0  0  0  0  0  0  0  0  0  0  0
    9.3249   -4.3325    1.2499 O   0  0  0  0  0  0  0  0  0  0  0  0
    8.2744   -6.3443    1.1257 N   0  0  0  0  0  0  0  0  0  0  0  0
    9.4329   -7.1889    1.5717 C   0  0  0  0  0  0  0  0  0  0  0  0
   10.4085   -7.5053    0.5016 C   0  0  0  0  0  0  0  0  0  0  0  0
   10.7687   -6.2352   -0.2688 C   0  0  0  0  0  0  0  0  0  0  0  0
   11.4751   -5.2025    0.5586 N   0  3  0  0  0  0  0  0  0  0  0  0
   11.5347    1.2162    6.6523 C   0  0  0  0  0  0  0  0  0  0  0  0
   11.6035    2.0554    5.7495 O   0  0  0  0  0  0  0  0  0  0  0  0
   10.7757    1.4754    7.7818 N   0  0  0  0  0  0  0  0  0  0  0  0
   10.2681    2.8176    7.9937 C   0  0  0  0  0  0  0  0  0  0  0  0
   10.4567    3.0466    9.4765 C   0  0  0  0  0  0  0  0  0  0  0  0
   10.2997    1.6615   10.1056 C   0  0  0  0  0  0  0  0  0  0  0  0
   10.4152    0.6390    8.9375 C   0  0  1  0  0  0  0  0  0  0  0  0
    8.9907   -0.0031    8.7959 C   0  0  0  0  0  0  0  0  0  0  0  0
    7.9731    0.6694    8.9114 O   0  0  0  0  0  0  0  0  0  0  0  0
    8.9335   -1.3597    8.4586 N   0  0  0  0  0  0  0  0  0  0  0  0
    7.6762   -2.2194    8.4571 C   0  0  1  0  0  0  0  0  0  0  0  0
    6.5812   -2.0351    9.4636 C   0  0  0  0  0  0  0  0  0  0  0  0
    7.0899   -1.9150   10.8099 C   0  0  0  0  0  0  0  0  0  0  0  0
    6.4259   -0.9403   11.5442 C   0  0  0  0  0  0  0  0  0  0  0  0
    7.0022   -0.5408   12.7096 C   0  0  0  0  0  0  0  0  0  0  0  0
    8.2024   -1.1203   13.1131 C   0  0  0  0  0  0  0  0  0  0  0  0
    8.8363   -2.1262   12.3699 C   0  0  0  0  0  0  0  0  0  0  0  0
    8.2563   -2.5644   11.2103 C   0  0  0  0  0  0  0  0  0  0  0  0
    6.6754   -1.8371    7.4332 C   0  0  0  0  0  0  0  0  0  0  0  0
    6.6438   -0.6532    7.0701 O   0  0  0  0  0  0  0  0  0  0  0  0
    5.9648   -3.1525    6.7566 N   0  0  0  0  0  0  0  0  0  0  0  0
    5.8020   -3.6820    4.7665 C   0  0  0  0  0  0  0  0  0  0  0  0
    6.8934   -4.1892    3.8384 C   0  0  0  0  0  0  0  0  0  0  0  0
    7.2217   -5.6483    3.8681 C   0  0  0  0  0  0  0  0  0  0  0  0
    8.6332   -5.5858    3.6101 N   0  3  0  0  0  0  0  0  0  0  0  0
   12.1296   -7.1816    4.8407 H   0  0  0  0  0  0  0  0  0  0  0  0
   11.4401   -6.4284    3.4861 H   0  0  0  0  0  0  0  0  0  0  0  0
   10.4052   -7.3177    4.6466 H   0  0  0  0  0  0  0  0  0  0  0  0
   11.6388   -4.5904    4.5833 H   0  0  0  0  0  0  0  0  0  0  0  0
   11.7835   -5.3616    6.1843 H   0  0  0  0  0  0  0  0  0  0  0  0
    8.7104   -1.0447    5.3285 H   0  0  0  0  0  0  0  0  0  0  0  0
    5.5425   -0.6949    5.2297 H   0  0  0  0  0  0  0  0  0  0  0  0
    2.4895   -1.4400    6.3121 H   0  0  0  0  0  0  0  0  0  0  0  0
    0.6817   -3.1088    6.0135 H   0  0  0  0  0  0  0  0  0  0  0  0
    1.1323   -5.2779    4.9334 H   0  0  0  0  0  0  0  0  0  0  0  0
    3.4015   -6.1609    4.9824 H   0  0  0  0  0  0  0  0  0  0  0  0
    5.8813   -6.2709    6.1239 H   0  0  0  0  0  0  0  0  0  0  0  0
   10.3181   -0.4919    5.6414 H   0  0  0  0  0  0  0  0  0  0  0  0
   12.5911   -0.5499    7.3869 H   0  0  0  0  0  0  0  0  0  0  0  0
   13.4856   -1.4115    5.2866 H   0  0  0  0  0  0  0  0  0  0  0  0
   14.0266    0.2270    5.4740 H   0  0  0  0  0  0  0  0  0  0  0  0
   13.4952   -0.3186    3.1144 H   0  0  0  0  0  0  0  0  0  0  0  0
   10.6840    0.5159    4.0065 H   0  0  0  0  0  0  0  0  0  0  0  0
   11.3370   -0.3037    1.2907 H   0  0  0  0  0  0  0  0  0  0  0  0
   12.0648    1.2805    1.5919 H   0  0  0  0  0  0  0  0  0  0  0  0
    9.9458    1.5536    0.5053 H   0  0  0  0  0  0  0  0  0  0  0  0
    9.3256    2.5939    3.1751 H   0  0  0  0  0  0  0  0  0  0  0  0
   10.0956    5.8884   -0.0895 H   0  0  0  0  0  0  0  0  0  0  0  0
   11.8153    5.9802    0.3639 H   0  0  0  0  0  0  0  0  0  0  0  0
    9.9005    8.3281    0.0127 H   0  0  0  0  0  0  0  0  0  0  0  0
   11.2823    7.8860   -1.0014 H   0  0  0  0  0  0  0  0  0  0  0  0
   11.5535    8.4858    0.6390 H   0  0  0  0  0  0  0  0  0  0  0  0
   10.1899    9.4649    4.2506 H   0  0  0  0  0  0  0  0  0  0  0  0
   10.3261   10.6124    6.4595 H   0  0  0  0  0  0  0  0  0  0  0  0
   10.4320   10.4718    8.9172 H   0  0  0  0  0  0  0  0  0  0  0  0
   10.0985    8.2989   10.0640 H   0  0  0  0  0  0  0  0  0  0  0  0
    9.6493    6.2631    8.7535 H   0  0  0  0  0  0  0  0  0  0  0  0
    9.4882    5.1506    6.5607 H   0  0  0  0  0  0  0  0  0  0  0  0
    9.9460    4.0035    4.4800 H   0  0  0  0  0  0  0  0  0  0  0  0
    7.9851   -0.5879   -1.0877 H   0  0  0  0  0  0  0  0  0  0  0  0
    8.7431    0.9892   -0.9028 H   0  0  0  0  0  0  0  0  0  0  0  0
    6.2840    0.8675   -2.0139 H   0  0  0  0  0  0  0  0  0  0  0  0
    6.5790    2.0992   -0.7650 H   0  0  0  0  0  0  0  0  0  0  0  0
    4.8451   -0.2625   -0.5777 H   0  0  0  0  0  0  0  0  0  0  0  0
    4.8767    1.1360    0.4474 H   0  0  0  0  0  0  0  0  0  0  0  0
    6.0315   -0.2360    2.0485 H   0  0  0  0  0  0  0  0  0  0  0  0
    7.6068   -2.3943    2.0423 H   0  0  0  0  0  0  0  0  0  0  0  0
    6.9122   -4.6593    1.8324 H   0  0  0  0  0  0  0  0  0  0  0  0
    5.5069   -5.8278    1.1932 H   0  0  0  0  0  0  0  0  0  0  0  0
    5.6421   -5.1856   -0.4049 H   0  0  0  0  0  0  0  0  0  0  0  0
    3.6666   -4.8355   -1.0479 H   0  0  0  0  0  0  0  0  0  0  0  0
    1.6181   -3.5377   -1.1125 H   0  0  0  0  0  0  0  0  0  0  0  0
    0.8506   -2.2372    0.8672 H   0  0  0  0  0  0  0  0  0  0  0  0
    2.2213   -2.2483    2.9254 H   0  0  0  0  0  0  0  0  0  0  0  0
    4.2921   -3.3679    2.9249 H   0  0  0  0  0  0  0  0  0  0  0  0
    7.3679   -6.8228    1.1280 H   0  0  0  0  0  0  0  0  0  0  0  0
    9.0722   -8.0134    2.2067 H   0  0  0  0  0  0  0  0  0  0  0  0
   10.0646   -6.5991    2.2287 H   0  0  0  0  0  0  0  0  0  0  0  0
    9.9344   -8.2542   -0.1323 H   0  0  0  0  0  0  0  0  0  0  0  0
   11.2931   -7.9471    0.9763 H   0  0  0  0  0  0  0  0  0  0  0  0
    9.8642   -5.7523   -0.6468 H   0  0  0  0  0  0  0  0  0  0  0  0
   11.3898   -6.4442   -1.1270 H   0  0  0  0  0  0  0  0  0  0  0  0
   10.8866   -4.8096    1.3177 H   0  0  0  0  0  0  0  0  0  0  0  0
   11.6163   -4.3589   -0.0169 H   0  0  0  0  0  0  0  0  0  0  0  0
   12.3920   -5.4724    0.9328 H   0  0  0  0  0  0  0  0  0  0  0  0
    9.2086    2.8240    7.7145 H   0  0  0  0  0  0  0  0  0  0  0  0
   10.7992    3.5635    7.3981 H   0  0  0  0  0  0  0  0  0  0  0  0
    9.7464    3.7786    9.8731 H   0  0  0  0  0  0  0  0  0  0  0  0
   11.4678    3.4250    9.6701 H   0  0  0  0  0  0  0  0  0  0  0  0
    9.3413    1.6120   10.6366 H   0  0  0  0  0  0  0  0  0  0  0  0
   11.0709    1.4998   10.8690 H   0  0  0  0  0  0  0  0  0  0  0  0
   11.1828   -0.1085    9.1408 H   0  0  0  0  0  0  0  0  0  0  0  0
    9.7540   -1.6843    7.9842 H   0  0  0  0  0  0  0  0  0  0  0  0
    8.0343   -3.2446    8.3439 H   0  0  0  0  0  0  0  0  0  0  0  0
    5.8126   -2.8115    9.3882 H   0  0  0  0  0  0  0  0  0  0  0  0
    6.0580   -1.0781    9.2592 H   0  0  0  0  0  0  0  0  0  0  0  0
    5.5484   -0.4282   11.1354 H   0  0  0  0  0  0  0  0  0  0  0  0
    6.5323    0.2629   13.2586 H   0  0  0  0  0  0  0  0  0  0  0  0
    8.6778   -0.7559   14.0131 H   0  0  0  0  0  0  0  0  0  0  0  0
    9.8007   -2.5252   12.6608 H   0  0  0  0  0  0  0  0  0  0  0  0
    8.7691   -3.2758   10.5694 H   0  0  0  0  0  0  0  0  0  0  0  0
    5.7011   -3.7721    7.5476 H   0  0  0  0  0  0  0  0  0  0  0  0
    5.5131   -2.8654    4.0524 H   0  0  0  0  0  0  0  0  0  0  0  0
    5.0649   -4.4196    4.3930 H   0  0  0  0  0  0  0  0  0  0  0  0
    7.7358   -3.5200    3.6115 H   0  0  0  0  0  0  0  0  0  0  0  0
    6.2695   -3.9745    3.0106 H   0  0  0  0  0  0  0  0  0  0  0  0
    6.7093   -6.2447    3.1202 H   0  0  0  0  0  0  0  0  0  0  0  0
    7.1968   -6.2699    4.7483 H   0  0  0  0  0  0  0  0  0  0  0  0
    8.6924   -5.7897    2.6492 H   0  0  0  0  0  0  0  0  0  0  0  0
    9.0749   -6.2250    4.2611 H   0  0  0  0  0  0  0  0  0  0  0  0
    9.1120   -4.6782    3.6826 H   0  0  0  0  0  0  0  0  0  0  0  0
  1  2  1  0  0  0  0
  1 95  1  0  0  0  0
  1 96  1  0  0  0  0
  1 97  1  0  0  0  0
  2  3  1  0  0  0  0
  2 98  1  0  0  0  0
  2 99  1  0  0  0  0
  3  4  2  0  0  0  0
  3 16  1  0  0  0  0
  4  5  1  0  0  0  0
  4 17  1  0  0  0  0
  5  6  2  0  0  0  0
  5100  1  0  0  0  0
  6  7  1  0  0  0  0
  6 15  1  0  0  0  0
  7  8  2  0  0  0  0
  7101  1  0  0  0  0
  8  9  1  0  0  0  0
  8 13  1  0  0  0  0
  9 10  2  0  0  0  0
  9102  1  0  0  0  0
 10 11  1  0  0  0  0
 10103  1  0  0  0  0
 11 12  2  0  0  0  0
 11104  1  0  0  0  0
 12 13  1  0  0  0  0
 12105  1  0  0  0  0
 13 14  2  0  0  0  0
 14 15  1  0  0  0  0
 14106  1  0  0  0  0
 15 16  2  0  0  0  0
 17 18  2  0  0  0  0
 17 19  1  0  0  0  0
 19 20  1  0  0  0  0
 19107  1  0  0  0  0
 20 21  1  0  0  0  0
 20 70  1  0  0  0  0
 20108  1  1  0  0  0
 21 22  1  0  0  0  0
 21109  1  0  0  0  0
 21110  1  0  0  0  0
 22 23  2  0  0  0  0
 22111  1  0  0  0  0
 23 24  1  0  0  0  0
 23112  1  0  0  0  0
 24113  1  0  0  0  0
 24114  1  0  0  0  0
 25 45  1  0  0  0  0
 25 26  1  0  0  0  0
 25 24  1  0  0  0  0
 25115  1  6  0  0  0
 26 27  1  0  0  0  0
 26116  1  0  0  0  0
 27 28  2  0  0  0  0
 27 29  1  0  0  0  0
 29 30  2  0  0  0  0
 29 44  1  0  0  0  0
 30 31  1  0  0  0  0
 30 33  1  0  0  0  0
 31 32  1  0  0  0  0
 31117  1  0  0  0  0
 31118  1  0  0  0  0
 32119  1  0  0  0  0
 32120  1  0  0  0  0
 32121  1  0  0  0  0
 33 34  2  0  0  0  0
 34 35  1  0  0  0  0
 34 43  1  0  0  0  0
 35 36  2  0  0  0  0
 35122  1  0  0  0  0
 36 37  1  0  0  0  0
 36 41  1  0  0  0  0
 37 38  2  0  0  0  0
 37123  1  0  0  0  0
 38 39  1  0  0  0  0
 38124  1  0  0  0  0
 39 40  2  0  0  0  0
 39125  1  0  0  0  0
 40 41  1  0  0  0  0
 40126  1  0  0  0  0
 41 42  2  0  0  0  0
 42 43  1  0  0  0  0
 42127  1  0  0  0  0
 43 44  2  0  0  0  0
 44128  1  0  0  0  0
 45 46  2  0  0  0  0
 45 47  1  0  0  0  0
 47 48  1  0  0  0  0
 47 51  1  0  0  0  0
 48 49  1  0  0  0  0
 48129  1  0  0  0  0
 48130  1  0  0  0  0
 49 50  1  0  0  0  0
 49131  1  0  0  0  0
 49132  1  0  0  0  0
 50 51  1  0  0  0  0
 50133  1  0  0  0  0
 50134  1  0  0  0  0
 51 52  1  0  0  0  0
 51135  1  1  0  0  0
 52 53  2  0  0  0  0
 52 54  1  0  0  0  0
 54 55  1  0  0  0  0
 54136  1  0  0  0  0
 55 56  1  0  0  0  0
 55 63  1  0  0  0  0
 55137  1  1  0  0  0
 56 57  1  0  0  0  0
 56138  1  0  0  0  0
 56139  1  0  0  0  0
 57 58  2  0  0  0  0
 57 62  1  0  0  0  0
 58 59  1  0  0  0  0
 58140  1  0  0  0  0
 59 60  2  0  0  0  0
 59141  1  0  0  0  0
 60 61  1  0  0  0  0
 60142  1  0  0  0  0
 61 62  2  0  0  0  0
 61143  1  0  0  0  0
 62144  1  0  0  0  0
 63 64  2  0  0  0  0
 63 65  1  0  0  0  0
 65 66  1  0  0  0  0
 65145  1  0  0  0  0
 66 67  1  0  0  0  0
 66146  1  0  0  0  0
 66147  1  0  0  0  0
 67 68  1  0  0  0  0
 67148  1  0  0  0  0
 67149  1  0  0  0  0
 68 69  1  0  0  0  0
 68150  1  0  0  0  0
 68151  1  0  0  0  0
 69152  1  0  0  0  0
 69153  1  0  0  0  0
 69154  1  0  0  0  0
 70 71  2  0  0  0  0
 70 72  1  0  0  0  0
 72 73  1  0  0  0  0
 72 76  1  0  0  0  0
 73 74  1  0  0  0  0
 73155  1  0  0  0  0
 73156  1  0  0  0  0
 74 75  1  0  0  0  0
 74157  1  0  0  0  0
 74158  1  0  0  0  0
 75 76  1  0  0  0  0
 75159  1  0  0  0  0
 75160  1  0  0  0  0
 76 77  1  0  0  0  0
 76161  1  1  0  0  0
 77 78  2  0  0  0  0
 77 79  1  0  0  0  0
 79 80  1  0  0  0  0
 79162  1  0  0  0  0
 80 81  1  0  0  0  0
 80 88  1  0  0  0  0
 80163  1  6  0  0  0
 81 82  1  0  0  0  0
 81164  1  0  0  0  0
 81165  1  0  0  0  0
 82 83  2  0  0  0  0
 82 87  1  0  0  0  0
 83 84  1  0  0  0  0
 83166  1  0  0  0  0
 84 85  2  0  0  0  0
 84167  1  0  0  0  0
 85 86  1  0  0  0  0
 85168  1  0  0  0  0
 86 87  2  0  0  0  0
 86169  1  0  0  0  0
 87170  1  0  0  0  0
 88 89  2  0  0  0  0
 88 90  1  0  0  0  0
 90 91  1  0  0  0  0
 90171  1  0  0  0  0
 91 92  1  0  0  0  0
 91172  1  0  0  0  0
 91173  1  0  0  0  0
 92 93  1  0  0  0  0
 92174  1  0  0  0  0
 92175  1  0  0  0  0
 93 94  1  0  0  0  0
 93176  1  0  0  0  0
 93177  1  0  0  0  0
 94178  1  0  0  0  0
 94179  1  0  0  0  0
 94180  1  0  0  0  0
M  CHG  2  69   1  94   1
M  END
$$$$
Target_lig_656
 OpenBabel04172516573D

 85 86  0  0  1  0  0  0  0  0999 V2000
    5.3578    2.0984    5.1288 C   0  0  0  0  0  0  0  0  0  0  0  0
    5.9547    1.3420    3.9738 C   0  0  0  0  0  0  0  0  0  0  0  0
    7.0118    0.7219    4.1172 O   0  0  0  0  0  0  0  0  0  0  0  0
    5.2065    1.4217    2.8269 N   0  0  0  0  0  0  0  0  0  0  0  0
    5.5947    0.7882    1.6796 C   0  0  0  0  0  0  0  0  0  0  0  0
    6.5393   -0.1072    1.5271 N   0  0  0  0  0  0  0  0  0  0  0  0
    6.5866   -0.4856    0.1894 C   0  0  0  0  0  0  0  0  0  0  0  0
    5.7192    0.1878   -0.6470 C   0  0  0  0  0  0  0  0  0  0  0  0
    4.7187    1.2293    0.2871 S   0  0  0  0  0  0  0  0  0  0  0  0
    7.4066   -1.6131   -0.2234 C   0  0  0  0  0  0  0  0  0  0  0  0
    7.4943   -2.7002    0.6586 C   0  0  0  0  0  0  0  0  0  0  0  0
    8.1871   -3.8618    0.3251 C   0  0  0  0  0  0  0  0  0  0  0  0
    8.2607   -4.9912    1.1741 N   0  0  0  0  0  0  0  0  0  0  0  0
    7.7383   -5.0826    2.4528 C   0  0  0  0  0  0  0  0  0  0  0  0
    7.1134   -4.2172    3.0474 O   0  0  0  0  0  0  0  0  0  0  0  0
    7.9011   -6.4721    3.0886 C   0  0  3  0  0  0  0  0  0  0  0  0
    7.9214   -6.3051    4.6225 C   0  0  0  0  0  0  0  0  0  0  0  0
    8.9827   -5.4294    5.1021 N   0  0  0  0  0  0  0  0  0  0  0  0
   10.2969   -5.8090    4.9933 C   0  0  0  0  0  0  0  0  0  0  0  0
   10.6407   -6.8617    4.4633 O   0  0  0  0  0  0  0  0  0  0  0  0
   11.3406   -4.8890    5.6386 C   0  0  1  0  0  0  0  0  0  0  0  0
   12.2298   -5.7333    6.5042 N   0  3  0  0  0  0  0  0  0  0  0  0
   12.1972   -4.1953    4.5695 C   0  0  0  0  0  0  0  0  0  0  0  0
   11.4189   -3.2856    3.6013 C   0  0  0  0  0  0  0  0  0  0  0  0
   10.6916   -2.1267    4.2914 C   0  0  0  0  0  0  0  0  0  0  0  0
    9.9540   -1.2384    3.2923 C   0  0  0  0  0  0  0  0  0  0  0  0
    9.2768   -0.1581    4.0154 N   0  3  0  0  0  0  0  0  0  0  0  0
    6.7547   -7.2749    2.6498 N   0  0  0  0  0  0  0  0  0  0  0  0
    6.8332   -8.6422    2.5570 C   0  0  0  0  0  0  0  0  0  0  0  0
    7.8597   -9.2744    2.7823 O   0  0  0  0  0  0  0  0  0  0  0  0
    5.5647   -9.3784    2.0921 C   0  0  1  0  0  0  0  0  0  0  0  0
    5.9550  -10.6504    1.3974 N   0  3  0  0  0  0  0  0  0  0  0  0
    4.6345   -9.7207    3.2638 C   0  0  0  0  0  0  0  0  0  0  0  0
    4.0660   -8.5177    4.0407 C   0  0  0  0  0  0  0  0  0  0  0  0
    3.2251   -7.5265    3.2183 C   0  0  0  0  0  0  0  0  0  0  0  0
    1.9710   -8.1540    2.6130 C   0  0  0  0  0  0  0  0  0  0  0  0
    1.2388   -7.1503    1.8098 N   0  3  0  0  0  0  0  0  0  0  0  0
    8.8232   -3.9227   -0.9186 C   0  0  0  0  0  0  0  0  0  0  0  0
    8.7631   -2.8349   -1.7990 C   0  0  0  0  0  0  0  0  0  0  0  0
    8.0523   -1.6819   -1.4562 C   0  0  0  0  0  0  0  0  0  0  0  0
    6.1296    2.2478    5.8910 H   0  0  0  0  0  0  0  0  0  0  0  0
    4.5401    1.5138    5.5560 H   0  0  0  0  0  0  0  0  0  0  0  0
    4.9981    3.0775    4.8057 H   0  0  0  0  0  0  0  0  0  0  0  0
    4.4060    2.0407    2.7618 H   0  0  0  0  0  0  0  0  0  0  0  0
    5.5683    0.0801   -1.7126 H   0  0  0  0  0  0  0  0  0  0  0  0
    6.9691   -2.6030    1.6023 H   0  0  0  0  0  0  0  0  0  0  0  0
    8.7693   -5.7857    0.8011 H   0  0  0  0  0  0  0  0  0  0  0  0
    8.8258   -6.9373    2.7312 H   0  0  0  0  0  0  0  0  0  0  0  0
    8.0422   -7.2811    5.1045 H   0  0  0  0  0  0  0  0  0  0  0  0
    6.9745   -5.8840    4.9865 H   0  0  0  0  0  0  0  0  0  0  0  0
    8.7166   -4.4783    5.3381 H   0  0  0  0  0  0  0  0  0  0  0  0
   10.8619   -4.1715    6.3093 H   0  0  0  0  0  0  0  0  0  0  0  0
   12.7090   -6.4503    5.9344 H   0  0  0  0  0  0  0  0  0  0  0  0
   11.6796   -6.2660    7.1949 H   0  0  0  0  0  0  0  0  0  0  0  0
   12.9436   -5.2020    7.0180 H   0  0  0  0  0  0  0  0  0  0  0  0
   12.7163   -4.9526    3.9684 H   0  0  0  0  0  0  0  0  0  0  0  0
   12.9782   -3.6020    5.0600 H   0  0  0  0  0  0  0  0  0  0  0  0
   10.7053   -3.8820    3.0209 H   0  0  0  0  0  0  0  0  0  0  0  0
   12.1327   -2.8728    2.8741 H   0  0  0  0  0  0  0  0  0  0  0  0
   11.4180   -1.5305    4.8569 H   0  0  0  0  0  0  0  0  0  0  0  0
    9.9694   -2.5213    5.0148 H   0  0  0  0  0  0  0  0  0  0  0  0
    9.1812   -1.8005    2.7643 H   0  0  0  0  0  0  0  0  0  0  0  0
   10.6330   -0.7737    2.5718 H   0  0  0  0  0  0  0  0  0  0  0  0
    8.5345   -0.4578    4.6667 H   0  0  0  0  0  0  0  0  0  0  0  0
    8.6870    0.4134    3.3756 H   0  0  0  0  0  0  0  0  0  0  0  0
    9.8864    0.5056    4.5064 H   0  0  0  0  0  0  0  0  0  0  0  0
    5.8804   -6.7731    2.5635 H   0  0  0  0  0  0  0  0  0  0  0  0
    5.0514   -8.7768    1.3349 H   0  0  0  0  0  0  0  0  0  0  0  0
    6.5047  -11.2555    2.0397 H   0  0  0  0  0  0  0  0  0  0  0  0
    6.6121  -10.4703    0.6201 H   0  0  0  0  0  0  0  0  0  0  0  0
    5.1770  -11.2098    1.0233 H   0  0  0  0  0  0  0  0  0  0  0  0
    5.1766  -10.3514    3.9823 H   0  0  0  0  0  0  0  0  0  0  0  0
    3.7983  -10.3303    2.9021 H   0  0  0  0  0  0  0  0  0  0  0  0
    4.8905   -7.9750    4.5205 H   0  0  0  0  0  0  0  0  0  0  0  0
    3.4529   -8.8979    4.8657 H   0  0  0  0  0  0  0  0  0  0  0  0
    3.8349   -7.0837    2.4240 H   0  0  0  0  0  0  0  0  0  0  0  0
    2.9387   -6.6970    3.8759 H   0  0  0  0  0  0  0  0  0  0  0  0
    1.2843   -8.5167    3.3839 H   0  0  0  0  0  0  0  0  0  0  0  0
    2.2216   -8.9695    1.9293 H   0  0  0  0  0  0  0  0  0  0  0  0
    0.8895   -6.3656    2.3830 H   0  0  0  0  0  0  0  0  0  0  0  0
    0.3931   -7.5727    1.3873 H   0  0  0  0  0  0  0  0  0  0  0  0
    1.7754   -6.7487    1.0286 H   0  0  0  0  0  0  0  0  0  0  0  0
    9.3757   -4.8053   -1.2344 H   0  0  0  0  0  0  0  0  0  0  0  0
    9.2641   -2.8883   -2.7656 H   0  0  0  0  0  0  0  0  0  0  0  0
    8.0126   -0.8541   -2.1626 H   0  0  0  0  0  0  0  0  0  0  0  0
  1  2  1  0  0  0  0
  1 41  1  0  0  0  0
  1 42  1  0  0  0  0
  1 43  1  0  0  0  0
  2  3  2  0  0  0  0
  2  4  1  0  0  0  0
  4  5  1  0  0  0  0
  4 44  1  0  0  0  0
  5  6  2  0  0  0  0
  5  9  1  0  0  0  0
  6  7  1  0  0  0  0
  7  8  2  0  0  0  0
  7 10  1  0  0  0  0
  8  9  1  0  0  0  0
  8 45  1  0  0  0  0
 10 11  2  0  0  0  0
 10 40  1  0  0  0  0
 11 12  1  0  0  0  0
 11 46  1  0  0  0  0
 12 13  1  0  0  0  0
 12 38  2  0  0  0  0
 13 14  1  0  0  0  0
 13 47  1  0  0  0  0
 14 15  2  0  0  0  0
 14 16  1  0  0  0  0
 16 17  1  0  0  0  0
 16 28  1  0  0  0  0
 16 48  1  0  0  0  0
 17 18  1  0  0  0  0
 17 49  1  0  0  0  0
 17 50  1  0  0  0  0
 18 19  1  0  0  0  0
 18 51  1  0  0  0  0
 19 20  2  0  0  0  0
 19 21  1  0  0  0  0
 21 22  1  0  0  0  0
 21 23  1  0  0  0  0
 21 52  1  1  0  0  0
 22 53  1  0  0  0  0
 22 54  1  0  0  0  0
 22 55  1  0  0  0  0
 23 24  1  0  0  0  0
 23 56  1  0  0  0  0
 23 57  1  0  0  0  0
 24 25  1  0  0  0  0
 24 58  1  0  0  0  0
 24 59  1  0  0  0  0
 25 26  1  0  0  0  0
 25 60  1  0  0  0  0
 25 61  1  0  0  0  0
 26 27  1  0  0  0  0
 26 62  1  0  0  0  0
 26 63  1  0  0  0  0
 27 64  1  0  0  0  0
 27 65  1  0  0  0  0
 27 66  1  0  0  0  0
 28 29  1  0  0  0  0
 28 67  1  0  0  0  0
 29 30  2  0  0  0  0
 29 31  1  0  0  0  0
 31 32  1  0  0  0  0
 31 33  1  0  0  0  0
 31 68  1  6  0  0  0
 32 69  1  0  0  0  0
 32 70  1  0  0  0  0
 32 71  1  0  0  0  0
 33 34  1  0  0  0  0
 33 72  1  0  0  0  0
 33 73  1  0  0  0  0
 34 35  1  0  0  0  0
 34 74  1  0  0  0  0
 34 75  1  0  0  0  0
 35 36  1  0  0  0  0
 35 76  1  0  0  0  0
 35 77  1  0  0  0  0
 36 37  1  0  0  0  0
 36 78  1  0  0  0  0
 36 79  1  0  0  0  0
 37 80  1  0  0  0  0
 37 81  1  0  0  0  0
 37 82  1  0  0  0  0
 38 39  1  0  0  0  0
 38 83  1  0  0  0  0
 39 40  2  0  0  0  0
 39 84  1  0  0  0  0
 40 85  1  0  0  0  0
M  CHG  4  22   1  27   1  32   1  37   1
M  END
$$$$
Target_lig_657
 OpenBabel04172516573D

 89 90  0  0  1  0  0  0  0  0999 V2000
    7.9410    0.0881   -5.9082 C   0  0  0  0  0  0  0  0  0  0  0  0
    8.0674    0.3633   -4.4321 C   0  0  0  0  0  0  0  0  0  0  0  0
    8.9146    1.1525   -4.0167 O   0  0  0  0  0  0  0  0  0  0  0  0
    7.1317   -0.3265   -3.6915 N   0  0  0  0  0  0  0  0  0  0  0  0
    7.0614   -0.1991   -2.3335 C   0  0  0  0  0  0  0  0  0  0  0  0
    7.6812    0.6585   -1.5674 N   0  0  0  0  0  0  0  0  0  0  0  0
    7.3309    0.4423   -0.2475 C   0  0  0  0  0  0  0  0  0  0  0  0
    6.4706   -0.6168   -0.0340 C   0  0  0  0  0  0  0  0  0  0  0  0
    6.0158   -1.2962   -1.5519 S   0  0  0  0  0  0  0  0  0  0  0  0
    7.7833    1.3758    0.7716 C   0  0  0  0  0  0  0  0  0  0  0  0
    7.8367    2.7342    0.4219 C   0  0  0  0  0  0  0  0  0  0  0  0
    8.2037    3.7111    1.3398 C   0  0  0  0  0  0  0  0  0  0  0  0
    8.1875    5.0964    1.0342 N   0  0  0  0  0  0  0  0  0  0  0  0
    7.5464    5.6650   -0.0581 C   0  0  0  0  0  0  0  0  0  0  0  0
    6.7908    5.0885   -0.8363 O   0  0  0  0  0  0  0  0  0  0  0  0
    7.7138    7.1858   -0.1572 C   0  0  3  0  0  0  0  0  0  0  0  0
    7.6485    7.6074   -1.6411 C   0  0  0  0  0  0  0  0  0  0  0  0
    8.6827    7.0252   -2.4844 N   0  0  0  0  0  0  0  0  0  0  0  0
   10.0063    7.3423   -2.2979 C   0  0  0  0  0  0  0  0  0  0  0  0
   10.3794    8.1411   -1.4418 O   0  0  0  0  0  0  0  0  0  0  0  0
   10.9817    6.7711   -3.3390 C   0  0  1  0  0  0  0  0  0  0  0  0
   11.2268    7.8430   -4.3693 N   0  3  0  0  0  0  0  0  0  0  0  0
   12.3291    6.4134   -2.6980 C   0  0  0  0  0  0  0  0  0  0  0  0
   12.2265    5.2959   -1.6438 C   0  0  0  0  0  0  0  0  0  0  0  0
   13.5977    5.0121   -1.0218 C   0  0  0  0  0  0  0  0  0  0  0  0
   13.5330    3.9747    0.0162 N   0  0  0  0  0  0  0  0  0  0  0  0
   14.3903    3.8766    1.0547 C   0  0  0  0  0  0  0  0  0  0  0  0
   14.2453    2.8871    1.9403 N   0  0  0  0  0  0  0  0  0  0  0  0
   15.3816    4.7532    1.2434 N   0  3  0  0  0  0  0  0  0  0  0  0
    6.6168    7.8048    0.6031 N   0  0  0  0  0  0  0  0  0  0  0  0
    6.7257    8.0046    1.9579 C   0  0  0  0  0  0  0  0  0  0  0  0
    7.7254    7.6712    2.5914 O   0  0  0  0  0  0  0  0  0  0  0  0
    5.4641    8.5558    2.6558 C   0  0  1  0  0  0  0  0  0  0  0  0
    4.6756    7.4019    3.2170 N   0  3  0  0  0  0  0  0  0  0  0  0
    5.8295    9.4964    3.8168 C   0  0  0  0  0  0  0  0  0  0  0  0
    6.5959   10.7527    3.3659 C   0  0  0  0  0  0  0  0  0  0  0  0
    6.9172   11.6743    4.5450 C   0  0  0  0  0  0  0  0  0  0  0  0
    7.7127   12.8402    4.1265 N   0  0  0  0  0  0  0  0  0  0  0  0
    9.0557   12.9195    4.1053 C   0  0  0  0  0  0  0  0  0  0  0  0
    9.6439   14.0662    3.7573 N   0  0  0  0  0  0  0  0  0  0  0  0
    9.8321   11.8731    4.4059 N   0  3  0  0  0  0  0  0  0  0  0  0
    8.5988    3.3112    2.6214 C   0  0  0  0  0  0  0  0  0  0  0  0
    8.5663    1.9560    2.9805 C   0  0  0  0  0  0  0  0  0  0  0  0
    8.1438    0.9848    2.0612 C   0  0  0  0  0  0  0  0  0  0  0  0
    8.8931    0.3096   -6.3993 H   0  0  0  0  0  0  0  0  0  0  0  0
    7.1607    0.7303   -6.3247 H   0  0  0  0  0  0  0  0  0  0  0  0
    7.6965   -0.9613   -6.0943 H   0  0  0  0  0  0  0  0  0  0  0  0
    6.5161   -1.0035   -4.1214 H   0  0  0  0  0  0  0  0  0  0  0  0
    6.0439   -0.9851    0.8886 H   0  0  0  0  0  0  0  0  0  0  0  0
    7.5786    2.9903   -0.6059 H   0  0  0  0  0  0  0  0  0  0  0  0
    8.5494    5.7260    1.7464 H   0  0  0  0  0  0  0  0  0  0  0  0
    8.6706    7.4753    0.2885 H   0  0  0  0  0  0  0  0  0  0  0  0
    7.7420    8.6982   -1.7076 H   0  0  0  0  0  0  0  0  0  0  0  0
    6.6841    7.3413   -2.0902 H   0  0  0  0  0  0  0  0  0  0  0  0
    8.4106    6.2034   -3.0252 H   0  0  0  0  0  0  0  0  0  0  0  0
   10.5442    5.9149   -3.8678 H   0  0  0  0  0  0  0  0  0  0  0  0
   11.6376    8.6835   -3.9450 H   0  0  0  0  0  0  0  0  0  0  0  0
   10.3449    8.1415   -4.8146 H   0  0  0  0  0  0  0  0  0  0  0  0
   11.8503    7.5333   -5.1311 H   0  0  0  0  0  0  0  0  0  0  0  0
   12.7635    7.3046   -2.2236 H   0  0  0  0  0  0  0  0  0  0  0  0
   13.0318    6.1010   -3.4792 H   0  0  0  0  0  0  0  0  0  0  0  0
   11.8229    4.3838   -2.0982 H   0  0  0  0  0  0  0  0  0  0  0  0
   11.5311    5.5837   -0.8455 H   0  0  0  0  0  0  0  0  0  0  0  0
   13.9688    5.9413   -0.5794 H   0  0  0  0  0  0  0  0  0  0  0  0
   14.2963    4.6685   -1.7911 H   0  0  0  0  0  0  0  0  0  0  0  0
   12.8207    3.2535   -0.0485 H   0  0  0  0  0  0  0  0  0  0  0  0
   13.5527    2.1550    1.8317 H   0  0  0  0  0  0  0  0  0  0  0  0
   14.8882    2.7770    2.7159 H   0  0  0  0  0  0  0  0  0  0  0  0
   15.5945    5.4845    0.5806 H   0  0  0  0  0  0  0  0  0  0  0  0
   16.0222    4.6639    2.0239 H   0  0  0  0  0  0  0  0  0  0  0  0
    5.7169    7.8580    0.1313 H   0  0  0  0  0  0  0  0  0  0  0  0
    4.8121    9.0555    1.9319 H   0  0  0  0  0  0  0  0  0  0  0  0
    5.2276    6.8681    3.9061 H   0  0  0  0  0  0  0  0  0  0  0  0
    4.3947    6.7260    2.4906 H   0  0  0  0  0  0  0  0  0  0  0  0
    3.8095    7.7030    3.6893 H   0  0  0  0  0  0  0  0  0  0  0  0
    6.4382    8.9599    4.5560 H   0  0  0  0  0  0  0  0  0  0  0  0
    4.9108    9.8081    4.3291 H   0  0  0  0  0  0  0  0  0  0  0  0
    6.0026   11.3050    2.6269 H   0  0  0  0  0  0  0  0  0  0  0  0
    7.5304   10.4715    2.8671 H   0  0  0  0  0  0  0  0  0  0  0  0
    7.4441   11.1446    5.3452 H   0  0  0  0  0  0  0  0  0  0  0  0
    5.9904   12.0587    4.9851 H   0  0  0  0  0  0  0  0  0  0  0  0
    7.2180   13.7173    3.9918 H   0  0  0  0  0  0  0  0  0  0  0  0
    9.1172   14.9027    3.5326 H   0  0  0  0  0  0  0  0  0  0  0  0
   10.6527   14.1675    3.7445 H   0  0  0  0  0  0  0  0  0  0  0  0
    9.4497   10.9948    4.7217 H   0  0  0  0  0  0  0  0  0  0  0  0
   10.8403   11.9665    4.4298 H   0  0  0  0  0  0  0  0  0  0  0  0
    8.9086    4.0340    3.3687 H   0  0  0  0  0  0  0  0  0  0  0  0
    8.8499    1.6470    3.9843 H   0  0  0  0  0  0  0  0  0  0  0  0
    8.1183   -0.0580    2.3573 H   0  0  0  0  0  0  0  0  0  0  0  0
  1  2  1  0  0  0  0
  1 45  1  0  0  0  0
  1 46  1  0  0  0  0
  1 47  1  0  0  0  0
  2  3  2  0  0  0  0
  2  4  1  0  0  0  0
  4  5  1  0  0  0  0
  4 48  1  0  0  0  0
  5  6  2  0  0  0  0
  5  9  1  0  0  0  0
  6  7  1  0  0  0  0
  7  8  2  0  0  0  0
  7 10  1  0  0  0  0
  8  9  1  0  0  0  0
  8 49  1  0  0  0  0
 10 11  2  0  0  0  0
 10 44  1  0  0  0  0
 11 12  1  0  0  0  0
 11 50  1  0  0  0  0
 12 13  1  0  0  0  0
 12 42  2  0  0  0  0
 13 14  1  0  0  0  0
 13 51  1  0  0  0  0
 14 15  2  0  0  0  0
 14 16  1  0  0  0  0
 16 17  1  0  0  0  0
 16 30  1  0  0  0  0
 16 52  1  0  0  0  0
 17 18  1  0  0  0  0
 17 53  1  0  0  0  0
 17 54  1  0  0  0  0
 18 19  1  0  0  0  0
 18 55  1  0  0  0  0
 19 20  2  0  0  0  0
 19 21  1  0  0  0  0
 21 22  1  0  0  0  0
 21 23  1  0  0  0  0
 21 56  1  6  0  0  0
 22 57  1  0  0  0  0
 22 58  1  0  0  0  0
 22 59  1  0  0  0  0
 23 24  1  0  0  0  0
 23 60  1  0  0  0  0
 23 61  1  0  0  0  0
 24 25  1  0  0  0  0
 24 62  1  0  0  0  0
 24 63  1  0  0  0  0
 25 26  1  0  0  0  0
 25 64  1  0  0  0  0
 25 65  1  0  0  0  0
 26 27  1  0  0  0  0
 26 66  1  0  0  0  0
 27 28  1  0  0  0  0
 27 29  2  0  0  0  0
 28 67  1  0  0  0  0
 28 68  1  0  0  0  0
 29 69  1  0  0  0  0
 29 70  1  0  0  0  0
 30 31  1  0  0  0  0
 30 71  1  0  0  0  0
 31 32  2  0  0  0  0
 31 33  1  0  0  0  0
 33 34  1  0  0  0  0
 33 35  1  0  0  0  0
 33 72  1  6  0  0  0
 34 73  1  0  0  0  0
 34 74  1  0  0  0  0
 34 75  1  0  0  0  0
 35 36  1  0  0  0  0
 35 76  1  0  0  0  0
 35 77  1  0  0  0  0
 36 37  1  0  0  0  0
 36 78  1  0  0  0  0
 36 79  1  0  0  0  0
 37 38  1  0  0  0  0
 37 80  1  0  0  0  0
 37 81  1  0  0  0  0
 38 39  1  0  0  0  0
 38 82  1  0  0  0  0
 39 40  1  0  0  0  0
 39 41  2  0  0  0  0
 40 83  1  0  0  0  0
 40 84  1  0  0  0  0
 41 85  1  0  0  0  0
 41 86  1  0  0  0  0
 42 43  1  0  0  0  0
 42 87  1  0  0  0  0
 43 44  2  0  0  0  0
 43 88  1  0  0  0  0
 44 89  1  0  0  0  0
M  CHG  4  22   1  29   1  34   1  41   1
M  END
$$$$
Target_lig_658
 OpenBabel04172516573D

185195  0  0  1  0  0  0  0  0999 V2000
   -4.1888  -19.0817    2.0653 C   0  0  0  0  0  0  0  0  0  0  0  0
   -3.9411  -18.1845    0.8546 C   0  0  0  0  0  0  0  0  0  0  0  0
   -4.6443  -16.8629    1.0536 C   0  0  0  0  0  0  0  0  0  0  0  0
   -4.0586  -15.7380    1.6464 C   0  0  0  0  0  0  0  0  0  0  0  0
   -4.9279  -14.7162    2.0472 C   0  0  0  0  0  0  0  0  0  0  0  0
   -6.3128  -14.8310    1.8532 C   0  0  0  0  0  0  0  0  0  0  0  0
   -7.1943  -13.8834    2.3935 C   0  0  0  0  0  0  0  0  0  0  0  0
   -8.5785  -14.0654    2.3105 C   0  0  0  0  0  0  0  0  0  0  0  0
   -9.4574  -13.2003    2.9794 C   0  0  0  0  0  0  0  0  0  0  0  0
  -10.8319  -13.4278    2.9548 C   0  0  0  0  0  0  0  0  0  0  0  0
  -11.3445  -14.4971    2.2269 C   0  0  0  0  0  0  0  0  0  0  0  0
  -10.4812  -15.3502    1.5333 C   0  0  0  0  0  0  0  0  0  0  0  0
   -9.0880  -15.1622    1.5867 C   0  0  0  0  0  0  0  0  0  0  0  0
   -8.1830  -16.0639    0.9917 C   0  0  0  0  0  0  0  0  0  0  0  0
   -6.8051  -15.9469    1.1664 C   0  0  0  0  0  0  0  0  0  0  0  0
   -5.9809  -16.9225    0.7487 N   0  0  0  0  0  0  0  0  0  0  0  0
   -2.5894  -15.6029    1.9358 C   0  0  0  0  0  0  0  0  0  0  0  0
   -1.8650  -16.5769    2.0908 O   0  0  0  0  0  0  0  0  0  0  0  0
   -2.0770  -14.3157    1.9951 N   0  0  0  0  0  0  0  0  0  0  0  0
   -0.6598  -14.0240    2.2831 C   0  0  1  0  0  0  0  0  0  0  0  0
    0.1571  -14.0082    0.9868 C   0  0  0  0  0  0  0  0  0  0  0  0
   -0.4654  -13.2472   -0.1937 C   0  0  0  0  0  0  0  0  0  0  0  0
   -0.7131  -11.8334   -0.0364 N   0  0  0  0  0  0  0  0  0  0  0  0
   -1.5633  -11.0736   -0.7970 C   0  0  0  0  0  0  0  0  0  0  0  0
   -1.0693   -9.7961   -0.6719 C   0  0  0  0  0  0  0  0  0  0  0  0
   -1.2430   -8.5519   -1.4582 C   0  0  0  0  0  0  0  0  0  0  0  0
   -2.4803   -7.7157   -1.2875 C   0  0  2  0  0  0  0  0  0  0  0  0
   -2.3960   -6.9754   -0.0282 N   0  0  0  0  0  0  0  0  0  0  0  0
   -2.5886   -7.6346    1.1756 C   0  0  0  0  0  0  0  0  0  0  0  0
   -2.8816   -8.8157    1.2499 O   0  0  0  0  0  0  0  0  0  0  0  0
   -2.4144   -6.8036    2.3773 C   0  0  0  0  0  0  0  0  0  0  0  0
   -2.0793   -7.3183    3.6200 C   0  0  0  0  0  0  0  0  0  0  0  0
   -1.9425   -8.7755    3.9567 C   0  0  0  0  0  0  0  0  0  0  0  0
   -1.7256   -8.9302    5.4718 C   0  0  0  0  0  0  0  0  0  0  0  0
   -1.9163   -6.5090    4.6919 N   0  0  0  0  0  0  0  0  0  0  0  0
   -2.3236   -5.2581    4.6483 C   0  0  0  0  0  0  0  0  0  0  0  0
   -2.4663   -4.5937    5.8451 C   0  0  0  0  0  0  0  0  0  0  0  0
   -3.1102   -3.3623    5.8725 C   0  0  0  0  0  0  0  0  0  0  0  0
   -3.4298   -2.7675    7.1048 C   0  0  0  0  0  0  0  0  0  0  0  0
   -4.1637   -1.5827    7.1139 C   0  0  0  0  0  0  0  0  0  0  0  0
   -4.5416   -0.9670    5.9349 C   0  0  0  0  0  0  0  0  0  0  0  0
   -4.1775   -1.5605    4.7133 C   0  0  0  0  0  0  0  0  0  0  0  0
   -3.4894   -2.7432    4.6772 C   0  0  0  0  0  0  0  0  0  0  0  0
   -3.2515   -3.3738    3.4526 C   0  0  0  0  0  0  0  0  0  0  0  0
   -2.7269   -4.6640    3.4481 C   0  0  0  0  0  0  0  0  0  0  0  0
   -2.7061   -5.4384    2.2941 C   0  0  0  0  0  0  0  0  0  0  0  0
   -3.8660   -8.3476   -1.5058 C   0  0  0  0  0  0  0  0  0  0  0  0
   -4.8488   -7.8618   -0.9303 O   0  0  0  0  0  0  0  0  0  0  0  0
   -4.0600   -9.3189   -2.4677 N   0  0  0  0  0  0  0  0  0  0  0  0
   -5.3487   -9.9719   -2.5428 C   0  0  0  0  0  0  0  0  0  0  0  0
   -5.1086  -11.2182   -3.3668 C   0  0  0  0  0  0  0  0  0  0  0  0
   -3.9174  -10.8936   -4.2574 C   0  0  0  0  0  0  0  0  0  0  0  0
   -3.1679   -9.7718   -3.5442 C   0  0  1  0  0  0  0  0  0  0  0  0
   -2.8923   -8.6024   -4.4955 C   0  0  0  0  0  0  0  0  0  0  0  0
   -1.7795   -8.3728   -4.9630 O   0  0  0  0  0  0  0  0  0  0  0  0
   -4.0025   -7.8473   -4.7897 N   0  0  0  0  0  0  0  0  0  0  0  0
   -3.9322   -6.7165   -5.6911 C   0  0  1  0  0  0  0  0  0  0  0  0
   -5.3304   -6.1993   -6.0938 C   0  0  0  0  0  0  0  0  0  0  0  0
   -6.2271   -5.7280   -4.9639 C   0  0  0  0  0  0  0  0  0  0  0  0
   -6.2174   -4.3836   -4.5733 C   0  0  0  0  0  0  0  0  0  0  0  0
   -6.9826   -3.9354   -3.4944 C   0  0  0  0  0  0  0  0  0  0  0  0
   -7.8183   -4.8212   -2.8232 C   0  0  0  0  0  0  0  0  0  0  0  0
   -7.9053   -6.1441   -3.2503 C   0  0  0  0  0  0  0  0  0  0  0  0
   -7.1139   -6.5971   -4.3121 C   0  0  0  0  0  0  0  0  0  0  0  0
   -3.0204   -5.6271   -5.0707 C   0  0  0  0  0  0  0  0  0  0  0  0
   -2.8890   -5.4275   -3.8574 O   0  0  0  0  0  0  0  0  0  0  0  0
   -2.3355   -4.8371   -5.9758 N   0  0  0  0  0  0  0  0  0  0  0  0
   -1.3150   -3.9010   -5.5415 C   0  0  0  0  0  0  0  0  0  0  0  0
   -1.8693   -2.5154   -5.2035 C   0  0  0  0  0  0  0  0  0  0  0  0
   -2.9644   -2.4674   -4.1458 C   0  0  0  0  0  0  0  0  0  0  0  0
   -2.5381   -3.0625   -2.8641 N   0  3  0  0  0  0  0  0  0  0  0  0
   -0.1422   -9.8008    0.3231 N   0  0  0  0  0  0  0  0  0  0  0  0
    0.1540  -11.0520    0.6241 N   0  0  0  0  0  0  0  0  0  0  0  0
   -0.5720  -12.6886    3.0617 C   0  0  0  0  0  0  0  0  0  0  0  0
   -1.4958  -11.8743    2.9261 O   0  0  0  0  0  0  0  0  0  0  0  0
    0.5322  -12.3869    3.8554 N   0  0  0  0  0  0  0  0  0  0  0  0
    1.5408  -13.3010    4.3622 C   0  0  0  0  0  0  0  0  0  0  0  0
    1.3135  -13.3017    5.8696 C   0  0  0  0  0  0  0  0  0  0  0  0
    0.8434  -11.8908    6.1857 C   0  0  0  0  0  0  0  0  0  0  0  0
    0.3740  -11.3170    4.8378 C   0  0  1  0  0  0  0  0  0  0  0  0
    1.0861   -9.9673    4.5905 C   0  0  0  0  0  0  0  0  0  0  0  0
    1.4175   -9.2631    5.5396 O   0  0  0  0  0  0  0  0  0  0  0  0
    1.2438   -9.5504    3.2780 N   0  0  0  0  0  0  0  0  0  0  0  0
    1.9055   -8.2654    2.9256 C   0  0  1  0  0  0  0  0  0  0  0  0
    3.0161   -7.7865    3.9006 C   0  0  0  0  0  0  0  0  0  0  0  0
    4.2210   -8.7166    3.9291 C   0  0  0  0  0  0  0  0  0  0  0  0
    5.4897   -8.1782    4.1232 C   0  0  0  0  0  0  0  0  0  0  0  0
    6.6214   -8.9915    3.9985 C   0  0  0  0  0  0  0  0  0  0  0  0
    6.4919  -10.3544    3.7198 C   0  0  0  0  0  0  0  0  0  0  0  0
    5.2426  -10.9179    3.6005 C   0  0  0  0  0  0  0  0  0  0  0  0
    4.1237  -10.1018    3.7102 C   0  0  0  0  0  0  0  0  0  0  0  0
    2.5894   -8.2212    1.5109 C   0  0  0  0  0  0  0  0  0  0  0  0
    3.3248   -7.3006    1.1335 O   0  0  0  0  0  0  0  0  0  0  0  0
    2.2432   -9.1935    0.6193 N   0  0  0  0  0  0  0  0  0  0  0  0
    2.7330   -9.3969   -0.7294 C   0  0  0  0  0  0  0  0  0  0  0  0
    2.1303   -8.4779   -1.7950 C   0  0  0  0  0  0  0  0  0  0  0  0
    2.1088   -7.0002   -1.4462 C   0  0  0  0  0  0  0  0  0  0  0  0
    3.4955   -6.5392   -1.2695 N   0  3  0  0  0  0  0  0  0  0  0  0
   -3.5851  -19.9919    2.0068 H   0  0  0  0  0  0  0  0  0  0  0  0
   -5.2423  -19.3840    2.1157 H   0  0  0  0  0  0  0  0  0  0  0  0
   -3.9512  -18.5708    3.0051 H   0  0  0  0  0  0  0  0  0  0  0  0
   -4.3494  -18.6798   -0.0359 H   0  0  0  0  0  0  0  0  0  0  0  0
   -2.8742  -18.0685    0.6568 H   0  0  0  0  0  0  0  0  0  0  0  0
   -4.5563  -13.8605    2.6020 H   0  0  0  0  0  0  0  0  0  0  0  0
   -6.7997  -13.0348    2.9479 H   0  0  0  0  0  0  0  0  0  0  0  0
   -9.0737  -12.3663    3.5626 H   0  0  0  0  0  0  0  0  0  0  0  0
  -11.4988  -12.7794    3.5180 H   0  0  0  0  0  0  0  0  0  0  0  0
  -12.4164  -14.6804    2.2175 H   0  0  0  0  0  0  0  0  0  0  0  0
  -10.9060  -16.1891    0.9852 H   0  0  0  0  0  0  0  0  0  0  0  0
   -8.5609  -16.9249    0.4425 H   0  0  0  0  0  0  0  0  0  0  0  0
   -2.6719  -13.5047    1.8612 H   0  0  0  0  0  0  0  0  0  0  0  0
   -0.2923  -14.8200    2.9360 H   0  0  0  0  0  0  0  0  0  0  0  0
    0.2648  -15.0473    0.6474 H   0  0  0  0  0  0  0  0  0  0  0  0
    1.1712  -13.6395    1.1793 H   0  0  0  0  0  0  0  0  0  0  0  0
   -1.4095  -13.7058   -0.5067 H   0  0  0  0  0  0  0  0  0  0  0  0
    0.2201  -13.3210   -1.0490 H   0  0  0  0  0  0  0  0  0  0  0  0
   -2.3308  -11.5264   -1.4036 H   0  0  0  0  0  0  0  0  0  0  0  0
   -1.0301   -8.7443   -2.5107 H   0  0  0  0  0  0  0  0  0  0  0  0
   -0.4293   -7.8764   -1.1697 H   0  0  0  0  0  0  0  0  0  0  0  0
   -2.4211   -6.9207   -2.0398 H   0  0  0  0  0  0  0  0  0  0  0  0
   -1.8768   -6.1124   -0.0108 H   0  0  0  0  0  0  0  0  0  0  0  0
   -1.1213   -9.1827    3.3728 H   0  0  0  0  0  0  0  0  0  0  0  0
   -2.8402   -9.3359    3.6807 H   0  0  0  0  0  0  0  0  0  0  0  0
   -0.7735   -8.4763    5.7730 H   0  0  0  0  0  0  0  0  0  0  0  0
   -1.7500   -9.9584    5.8190 H   0  0  0  0  0  0  0  0  0  0  0  0
   -2.5063   -8.4280    6.0441 H   0  0  0  0  0  0  0  0  0  0  0  0
   -2.1912   -5.1180    6.7586 H   0  0  0  0  0  0  0  0  0  0  0  0
   -3.1715   -3.2360    8.0399 H   0  0  0  0  0  0  0  0  0  0  0  0
   -4.4612   -1.1507    8.0691 H   0  0  0  0  0  0  0  0  0  0  0  0
   -5.1324   -0.0613    5.9449 H   0  0  0  0  0  0  0  0  0  0  0  0
   -4.5127   -1.0601    3.7925 H   0  0  0  0  0  0  0  0  0  0  0  0
   -3.5732   -2.9140    2.5239 H   0  0  0  0  0  0  0  0  0  0  0  0
   -3.0730   -5.0064    1.3667 H   0  0  0  0  0  0  0  0  0  0  0  0
   -6.0436   -9.2874   -3.0375 H   0  0  0  0  0  0  0  0  0  0  0  0
   -5.7310  -10.1948   -1.5416 H   0  0  0  0  0  0  0  0  0  0  0  0
   -5.9912  -11.4960   -3.9481 H   0  0  0  0  0  0  0  0  0  0  0  0
   -4.8585  -12.0565   -2.7068 H   0  0  0  0  0  0  0  0  0  0  0  0
   -4.2379  -10.6033   -5.2625 H   0  0  0  0  0  0  0  0  0  0  0  0
   -3.2728  -11.7740   -4.3704 H   0  0  0  0  0  0  0  0  0  0  0  0
   -2.2296  -10.1602   -3.1649 H   0  0  0  0  0  0  0  0  0  0  0  0
   -4.7851   -7.9118   -4.1458 H   0  0  0  0  0  0  0  0  0  0  0  0
   -3.4272   -7.0782   -6.5969 H   0  0  0  0  0  0  0  0  0  0  0  0
   -5.8587   -6.9963   -6.6341 H   0  0  0  0  0  0  0  0  0  0  0  0
   -5.2152   -5.3776   -6.8111 H   0  0  0  0  0  0  0  0  0  0  0  0
   -5.6497   -3.6621   -5.1479 H   0  0  0  0  0  0  0  0  0  0  0  0
   -6.9639   -2.8898   -3.1990 H   0  0  0  0  0  0  0  0  0  0  0  0
   -8.4345   -4.4759   -1.9951 H   0  0  0  0  0  0  0  0  0  0  0  0
   -8.6071   -6.8184   -2.7615 H   0  0  0  0  0  0  0  0  0  0  0  0
   -7.2306   -7.6292   -4.6373 H   0  0  0  0  0  0  0  0  0  0  0  0
   -2.2777   -5.1710   -6.9366 H   0  0  0  0  0  0  0  0  0  0  0  0
   -0.5861   -3.8160   -6.3549 H   0  0  0  0  0  0  0  0  0  0  0  0
   -0.7825   -4.3222   -4.6801 H   0  0  0  0  0  0  0  0  0  0  0  0
   -2.2781   -2.0768   -6.1225 H   0  0  0  0  0  0  0  0  0  0  0  0
   -1.0388   -1.8726   -4.8898 H   0  0  0  0  0  0  0  0  0  0  0  0
   -3.8352   -3.0305   -4.4643 H   0  0  0  0  0  0  0  0  0  0  0  0
   -3.2778   -1.4424   -3.9352 H   0  0  0  0  0  0  0  0  0  0  0  0
   -2.3693   -4.0787   -3.0116 H   0  0  0  0  0  0  0  0  0  0  0  0
   -3.3107   -3.0344   -2.1856 H   0  0  0  0  0  0  0  0  0  0  0  0
   -1.7190   -2.6067   -2.4528 H   0  0  0  0  0  0  0  0  0  0  0  0
    2.5157  -12.8525    4.1410 H   0  0  0  0  0  0  0  0  0  0  0  0
    1.5000  -14.2962    3.9250 H   0  0  0  0  0  0  0  0  0  0  0  0
    2.2160  -13.5564    6.4336 H   0  0  0  0  0  0  0  0  0  0  0  0
    0.5250  -14.0103    6.1431 H   0  0  0  0  0  0  0  0  0  0  0  0
    1.6571  -11.3185    6.6457 H   0  0  0  0  0  0  0  0  0  0  0  0
    0.0234  -11.8943    6.9153 H   0  0  0  0  0  0  0  0  0  0  0  0
   -0.6866  -11.1307    4.9077 H   0  0  0  0  0  0  0  0  0  0  0  0
    0.6743  -10.0464    2.5938 H   0  0  0  0  0  0  0  0  0  0  0  0
    1.0993   -7.5193    2.9024 H   0  0  0  0  0  0  0  0  0  0  0  0
    2.6471   -7.5863    4.9106 H   0  0  0  0  0  0  0  0  0  0  0  0
    3.3536   -6.7967    3.5569 H   0  0  0  0  0  0  0  0  0  0  0  0
    5.6130   -7.1214    4.3475 H   0  0  0  0  0  0  0  0  0  0  0  0
    7.6072   -8.5601    4.1150 H   0  0  0  0  0  0  0  0  0  0  0  0
    7.3729  -10.9812    3.6109 H   0  0  0  0  0  0  0  0  0  0  0  0
    5.1073  -11.9798    3.4140 H   0  0  0  0  0  0  0  0  0  0  0  0
    3.1862  -10.6136    3.5850 H   0  0  0  0  0  0  0  0  0  0  0  0
    1.4983   -9.8318    0.9054 H   0  0  0  0  0  0  0  0  0  0  0  0
    2.4791  -10.4303   -0.9932 H   0  0  0  0  0  0  0  0  0  0  0  0
    3.8206   -9.3092   -0.7224 H   0  0  0  0  0  0  0  0  0  0  0  0
    1.1270   -8.8216   -2.0277 H   0  0  0  0  0  0  0  0  0  0  0  0
    2.6688   -8.6182   -2.7383 H   0  0  0  0  0  0  0  0  0  0  0  0
    1.5562   -6.7765   -0.5262 H   0  0  0  0  0  0  0  0  0  0  0  0
    1.6594   -6.3986   -2.2427 H   0  0  0  0  0  0  0  0  0  0  0  0
    3.8761   -7.0195   -0.4230 H   0  0  0  0  0  0  0  0  0  0  0  0
    3.5748   -5.5481   -1.0260 H   0  0  0  0  0  0  0  0  0  0  0  0
    4.1068   -6.7543   -2.0645 H   0  0  0  0  0  0  0  0  0  0  0  0
  1  2  1  0  0  0  0
  1 99  1  0  0  0  0
  1100  1  0  0  0  0
  1101  1  0  0  0  0
  2  3  1  0  0  0  0
  2102  1  0  0  0  0
  2103  1  0  0  0  0
  3  4  2  0  0  0  0
  3 16  1  0  0  0  0
  4  5  1  0  0  0  0
  4 17  1  0  0  0  0
  5  6  2  0  0  0  0
  5104  1  0  0  0  0
  6  7  1  0  0  0  0
  6 15  1  0  0  0  0
  7  8  2  0  0  0  0
  7105  1  0  0  0  0
  8  9  1  0  0  0  0
  8 13  1  0  0  0  0
  9 10  2  0  0  0  0
  9106  1  0  0  0  0
 10 11  1  0  0  0  0
 10107  1  0  0  0  0
 11 12  2  0  0  0  0
 11108  1  0  0  0  0
 12 13  1  0  0  0  0
 12109  1  0  0  0  0
 13 14  2  0  0  0  0
 14 15  1  0  0  0  0
 14110  1  0  0  0  0
 15 16  2  0  0  0  0
 17 18  2  0  0  0  0
 17 19  1  0  0  0  0
 19 20  1  0  0  0  0
 19111  1  0  0  0  0
 20 21  1  0  0  0  0
 20 74  1  0  0  0  0
 20112  1  1  0  0  0
 21 22  1  0  0  0  0
 21113  1  0  0  0  0
 21114  1  0  0  0  0
 22 23  1  0  0  0  0
 22115  1  0  0  0  0
 22116  1  0  0  0  0
 23 24  1  0  0  0  0
 23 73  1  0  0  0  0
 24 25  2  0  0  0  0
 24117  1  0  0  0  0
 25 26  1  0  0  0  0
 25 72  1  0  0  0  0
 26118  1  0  0  0  0
 26119  1  0  0  0  0
 27 47  1  0  0  0  0
 27 28  1  0  0  0  0
 27 26  1  0  0  0  0
 27120  1  6  0  0  0
 28 29  1  0  0  0  0
 28121  1  0  0  0  0
 29 30  2  0  0  0  0
 29 31  1  0  0  0  0
 31 32  2  0  0  0  0
 31 46  1  0  0  0  0
 32 33  1  0  0  0  0
 32 35  1  0  0  0  0
 33 34  1  0  0  0  0
 33122  1  0  0  0  0
 33123  1  0  0  0  0
 34124  1  0  0  0  0
 34125  1  0  0  0  0
 34126  1  0  0  0  0
 35 36  2  0  0  0  0
 36 37  1  0  0  0  0
 36 45  1  0  0  0  0
 37 38  2  0  0  0  0
 37127  1  0  0  0  0
 38 39  1  0  0  0  0
 38 43  1  0  0  0  0
 39 40  2  0  0  0  0
 39128  1  0  0  0  0
 40 41  1  0  0  0  0
 40129  1  0  0  0  0
 41 42  2  0  0  0  0
 41130  1  0  0  0  0
 42 43  1  0  0  0  0
 42131  1  0  0  0  0
 43 44  2  0  0  0  0
 44 45  1  0  0  0  0
 44132  1  0  0  0  0
 45 46  2  0  0  0  0
 46133  1  0  0  0  0
 47 48  2  0  0  0  0
 47 49  1  0  0  0  0
 49 50  1  0  0  0  0
 49 53  1  0  0  0  0
 50 51  1  0  0  0  0
 50134  1  0  0  0  0
 50135  1  0  0  0  0
 51 52  1  0  0  0  0
 51136  1  0  0  0  0
 51137  1  0  0  0  0
 52 53  1  0  0  0  0
 52138  1  0  0  0  0
 52139  1  0  0  0  0
 53 54  1  0  0  0  0
 53140  1  1  0  0  0
 54 55  2  0  0  0  0
 54 56  1  0  0  0  0
 56 57  1  0  0  0  0
 56141  1  0  0  0  0
 57 58  1  0  0  0  0
 57 65  1  0  0  0  0
 57142  1  6  0  0  0
 58 59  1  0  0  0  0
 58143  1  0  0  0  0
 58144  1  0  0  0  0
 59 60  2  0  0  0  0
 59 64  1  0  0  0  0
 60 61  1  0  0  0  0
 60145  1  0  0  0  0
 61 62  2  0  0  0  0
 61146  1  0  0  0  0
 62 63  1  0  0  0  0
 62147  1  0  0  0  0
 63 64  2  0  0  0  0
 63148  1  0  0  0  0
 64149  1  0  0  0  0
 65 66  2  0  0  0  0
 65 67  1  0  0  0  0
 67 68  1  0  0  0  0
 67150  1  0  0  0  0
 68 69  1  0  0  0  0
 68151  1  0  0  0  0
 68152  1  0  0  0  0
 69 70  1  0  0  0  0
 69153  1  0  0  0  0
 69154  1  0  0  0  0
 70 71  1  0  0  0  0
 70155  1  0  0  0  0
 70156  1  0  0  0  0
 71157  1  0  0  0  0
 71158  1  0  0  0  0
 71159  1  0  0  0  0
 72 73  2  0  0  0  0
 74 75  2  0  0  0  0
 74 76  1  0  0  0  0
 76 77  1  0  0  0  0
 76 80  1  0  0  0  0
 77 78  1  0  0  0  0
 77160  1  0  0  0  0
 77161  1  0  0  0  0
 78 79  1  0  0  0  0
 78162  1  0  0  0  0
 78163  1  0  0  0  0
 79 80  1  0  0  0  0
 79164  1  0  0  0  0
 79165  1  0  0  0  0
 80 81  1  0  0  0  0
 80166  1  1  0  0  0
 81 82  2  0  0  0  0
 81 83  1  0  0  0  0
 83 84  1  0  0  0  0
 83167  1  0  0  0  0
 84 85  1  0  0  0  0
 84 92  1  0  0  0  0
 84168  1  1  0  0  0
 85 86  1  0  0  0  0
 85169  1  0  0  0  0
 85170  1  0  0  0  0
 86 87  2  0  0  0  0
 86 91  1  0  0  0  0
 87 88  1  0  0  0  0
 87171  1  0  0  0  0
 88 89  2  0  0  0  0
 88172  1  0  0  0  0
 89 90  1  0  0  0  0
 89173  1  0  0  0  0
 90 91  2  0  0  0  0
 90174  1  0  0  0  0
 91175  1  0  0  0  0
 92 93  2  0  0  0  0
 92 94  1  0  0  0  0
 94 95  1  0  0  0  0
 94176  1  0  0  0  0
 95 96  1  0  0  0  0
 95177  1  0  0  0  0
 95178  1  0  0  0  0
 96 97  1  0  0  0  0
 96179  1  0  0  0  0
 96180  1  0  0  0  0
 97 98  1  0  0  0  0
 97181  1  0  0  0  0
 97182  1  0  0  0  0
 98183  1  0  0  0  0
 98184  1  0  0  0  0
 98185  1  0  0  0  0
M  CHG  2  71   1  98   1
M  END
$$$$
Target_lig_659
 OpenBabel04172516573D

191201  0  0  1  0  0  0  0  0999 V2000
   -6.9703  -12.7345   -5.8680 C   0  0  0  0  0  0  0  0  0  0  0  0
   -7.4905  -11.4789   -6.5518 C   0  0  0  0  0  0  0  0  0  0  0  0
   -6.3161  -10.7448   -7.1216 C   0  0  0  0  0  0  0  0  0  0  0  0
   -5.5173   -9.7616   -6.5122 C   0  0  0  0  0  0  0  0  0  0  0  0
   -4.2294   -9.4633   -6.9936 C   0  0  0  0  0  0  0  0  0  0  0  0
   -3.8092  -10.0133   -8.2271 C   0  0  0  0  0  0  0  0  0  0  0  0
   -2.2784   -9.7713   -9.1834 C   0  0  0  0  0  0  0  0  0  0  0  0
   -2.1791  -10.0045  -10.9406 C   0  0  0  0  0  0  0  0  0  0  0  0
   -1.4050   -9.2182  -11.7836 C   0  0  0  0  0  0  0  0  0  0  0  0
   -1.7384   -9.1384  -13.1545 C   0  0  0  0  0  0  0  0  0  0  0  0
   -2.6230  -10.0052  -13.8432 C   0  0  0  0  0  0  0  0  0  0  0  0
   -3.4588  -10.9053  -13.1770 C   0  0  0  0  0  0  0  0  0  0  0  0
   -3.5376  -10.7949  -11.8135 C   0  0  0  0  0  0  0  0  0  0  0  0
   -5.0267  -11.0850  -10.9062 C   0  0  0  0  0  0  0  0  0  0  0  0
   -5.1487  -10.7981   -9.0732 C   0  0  0  0  0  0  0  0  0  0  0  0
   -6.1227  -11.2468   -8.3423 N   0  0  0  0  0  0  0  0  0  0  0  0
   -6.1345   -8.9668   -5.4393 C   0  0  0  0  0  0  0  0  0  0  0  0
   -6.7657   -9.5280   -4.5536 O   0  0  0  0  0  0  0  0  0  0  0  0
   -6.0393   -7.5903   -5.5263 N   0  0  0  0  0  0  0  0  0  0  0  0
   -6.4753   -6.7773   -4.3829 C   0  0  1  0  0  0  0  0  0  0  0  0
   -5.4346   -6.8870   -3.2611 C   0  0  0  0  0  0  0  0  0  0  0  0
   -4.0891   -6.3726   -3.6223 C   0  0  0  0  0  0  0  0  0  0  0  0
   -2.8770   -6.7675   -3.1196 C   0  0  0  0  0  0  0  0  0  0  0  0
   -2.0148   -5.8366   -3.6137 N   0  0  0  0  0  0  0  0  0  0  0  0
   -0.7862   -5.4838   -2.9635 C   0  0  0  0  0  0  0  0  0  0  0  0
    0.4957   -5.9472   -3.6303 C   0  0  0  0  0  0  0  0  0  0  0  0
    1.7475   -5.2875   -2.9958 C   0  0  2  0  0  0  0  0  0  0  0  0
    2.8099   -5.0031   -4.0511 N   0  0  0  0  0  0  0  0  0  0  0  0
    2.8709   -5.8839   -5.2294 C   0  0  0  0  0  0  0  0  0  0  0  0
    3.7455   -3.9245   -4.0366 C   0  0  0  0  0  0  0  0  0  0  0  0
    4.5274   -3.7509   -4.9711 O   0  0  0  0  0  0  0  0  0  0  0  0
    3.8436   -2.9920   -2.8628 C   0  0  0  0  0  0  0  0  0  0  0  0
    5.0466   -2.5595   -2.3029 C   0  0  0  0  0  0  0  0  0  0  0  0
    6.3823   -2.5899   -3.0092 C   0  0  0  0  0  0  0  0  0  0  0  0
    6.5893   -1.3789   -3.9193 C   0  0  0  0  0  0  0  0  0  0  0  0
    5.0940   -1.9794   -1.0565 N   0  0  0  0  0  0  0  0  0  0  0  0
    3.9638   -1.8387   -0.3352 C   0  0  0  0  0  0  0  0  0  0  0  0
    3.9930   -1.4952    1.0156 C   0  0  0  0  0  0  0  0  0  0  0  0
    2.8401   -1.5295    1.8307 C   0  0  0  0  0  0  0  0  0  0  0  0
    2.9234   -1.4396    3.2322 C   0  0  0  0  0  0  0  0  0  0  0  0
    1.8137   -1.7006    4.0435 C   0  0  0  0  0  0  0  0  0  0  0  0
    0.5787   -1.9608    3.4677 C   0  0  0  0  0  0  0  0  0  0  0  0
    0.4500   -1.9074    2.0801 C   0  0  0  0  0  0  0  0  0  0  0  0
    1.5853   -1.7643    1.2421 C   0  0  0  0  0  0  0  0  0  0  0  0
    1.5380   -1.9916   -0.1479 C   0  0  0  0  0  0  0  0  0  0  0  0
    2.7179   -2.0884   -0.9091 C   0  0  0  0  0  0  0  0  0  0  0  0
    2.6892   -2.5379   -2.2310 C   0  0  0  0  0  0  0  0  0  0  0  0
    2.4314   -5.8309   -1.6455 C   0  0  0  0  0  0  0  0  0  0  0  0
    3.6240   -6.1632   -1.6671 O   0  0  0  0  0  0  0  0  0  0  0  0
    1.7840   -5.8243   -0.4067 N   0  0  0  0  0  0  0  0  0  0  0  0
    0.3886   -5.6783   -0.0647 C   0  0  0  0  0  0  0  0  0  0  0  0
    0.3364   -4.9161    1.2177 C   0  0  0  0  0  0  0  0  0  0  0  0
    1.6600   -5.1247    1.8873 C   0  0  0  0  0  0  0  0  0  0  0  0
    2.5712   -5.8003    0.8402 C   0  0  1  0  0  0  0  0  0  0  0  0
    3.0578   -7.0095    1.6474 C   0  0  0  0  0  0  0  0  0  0  0  0
    3.6047   -6.7620    2.7365 O   0  0  0  0  0  0  0  0  0  0  0  0
    2.8377   -8.3208    1.2863 N   0  0  0  0  0  0  0  0  0  0  0  0
    2.2367   -8.7460    0.0274 C   0  0  0  0  0  0  0  0  0  0  0  0
    3.2818   -9.3393    2.2753 C   0  0  1  0  0  0  0  0  0  0  0  0
    3.0679  -10.7829    1.7766 C   0  0  0  0  0  0  0  0  0  0  0  0
    3.5269  -11.8405    2.7317 C   0  0  0  0  0  0  0  0  0  0  0  0
    2.6653  -12.3108    3.7250 C   0  0  0  0  0  0  0  0  0  0  0  0
    3.1458  -13.1802    4.6966 C   0  0  0  0  0  0  0  0  0  0  0  0
    4.4791  -13.5905    4.6682 C   0  0  0  0  0  0  0  0  0  0  0  0
    5.3191  -13.1862    3.6306 C   0  0  0  0  0  0  0  0  0  0  0  0
    4.8368  -12.3236    2.6538 C   0  0  0  0  0  0  0  0  0  0  0  0
    4.7896   -9.1252    2.6796 C   0  0  0  0  0  0  0  0  0  0  0  0
    5.7560   -9.4035    1.9645 O   0  0  0  0  0  0  0  0  0  0  0  0
    4.9805   -8.5811    3.9499 N   0  0  0  0  0  0  0  0  0  0  0  0
    6.2771   -8.0900    4.3887 C   0  0  0  0  0  0  0  0  0  0  0  0
    6.9304   -9.0508    5.3771 C   0  0  0  0  0  0  0  0  0  0  0  0
    6.9925  -10.4763    4.8599 C   0  0  0  0  0  0  0  0  0  0  0  0
    7.7226  -10.5508    3.5743 N   0  3  0  0  0  0  0  0  0  0  0  0
   -2.6069   -5.0063   -4.4732 N   0  0  0  0  0  0  0  0  0  0  0  0
   -3.8872   -5.3434   -4.5066 N   0  0  0  0  0  0  0  0  0  0  0  0
   -6.8428   -5.3146   -4.7105 C   0  0  0  0  0  0  0  0  0  0  0  0
   -6.4757   -4.3886   -3.9829 O   0  0  0  0  0  0  0  0  0  0  0  0
   -7.7369   -5.0916   -5.7335 N   0  0  0  0  0  0  0  0  0  0  0  0
   -8.1182   -3.7432   -6.1028 C   0  0  0  0  0  0  0  0  0  0  0  0
   -9.6076   -3.8659   -6.3720 C   0  0  0  0  0  0  0  0  0  0  0  0
   -9.8260   -5.3024   -6.8524 C   0  0  0  0  0  0  0  0  0  0  0  0
   -8.5259   -6.0598   -6.4988 C   0  0  1  0  0  0  0  0  0  0  0  0
   -7.9244   -6.2536   -7.8802 C   0  0  0  0  0  0  0  0  0  0  0  0
   -7.6909   -5.2574   -8.5627 O   0  0  0  0  0  0  0  0  0  0  0  0
   -7.7935   -7.5295   -8.3722 N   0  0  0  0  0  0  0  0  0  0  0  0
   -7.6359   -7.7444   -9.8164 C   0  0  1  0  0  0  0  0  0  0  0  0
   -7.0381   -6.6414  -10.7118 C   0  0  0  0  0  0  0  0  0  0  0  0
   -5.7739   -5.8931  -10.2576 C   0  0  0  0  0  0  0  0  0  0  0  0
   -5.0617   -6.1352   -9.0547 C   0  0  0  0  0  0  0  0  0  0  0  0
   -4.1651   -5.2014   -8.5505 C   0  0  0  0  0  0  0  0  0  0  0  0
   -3.9638   -4.0271   -9.2611 C   0  0  0  0  0  0  0  0  0  0  0  0
   -4.5472   -3.8527  -10.5182 C   0  0  0  0  0  0  0  0  0  0  0  0
   -5.4098   -4.8065  -11.0393 C   0  0  0  0  0  0  0  0  0  0  0  0
   -6.8608   -9.0111  -10.0945 C   0  0  0  0  0  0  0  0  0  0  0  0
   -7.4618  -10.0809  -10.1247 O   0  0  0  0  0  0  0  0  0  0  0  0
   -5.4998   -8.7785  -10.1870 N   0  0  0  0  0  0  0  0  0  0  0  0
   -4.0920   -9.4623  -10.2447 C   0  0  0  0  0  0  0  0  0  0  0  0
   -3.4206  -11.5046   -9.8119 C   0  0  0  0  0  0  0  0  0  0  0  0
   -4.4735  -13.0513   -9.9219 C   0  0  0  0  0  0  0  0  0  0  0  0
   -4.6387  -13.6586  -11.2856 N   0  3  0  0  0  0  0  0  0  0  0  0
   -7.8004  -13.3238   -5.4755 H   0  0  0  0  0  0  0  0  0  0  0  0
   -6.2790  -12.4887   -5.0565 H   0  0  0  0  0  0  0  0  0  0  0  0
   -6.4200  -13.3725   -6.5763 H   0  0  0  0  0  0  0  0  0  0  0  0
   -8.1450  -10.8587   -5.9487 H   0  0  0  0  0  0  0  0  0  0  0  0
   -8.1070  -11.8105   -7.4023 H   0  0  0  0  0  0  0  0  0  0  0  0
   -3.5926   -8.7055   -6.5097 H   0  0  0  0  0  0  0  0  0  0  0  0
   -1.5298   -9.1099   -8.7259 H   0  0  0  0  0  0  0  0  0  0  0  0
   -0.8085   -8.4143  -11.3527 H   0  0  0  0  0  0  0  0  0  0  0  0
   -1.3550   -8.2901  -13.7313 H   0  0  0  0  0  0  0  0  0  0  0  0
   -2.7618   -9.8935  -14.9095 H   0  0  0  0  0  0  0  0  0  0  0  0
   -4.1495  -11.5313  -13.7352 H   0  0  0  0  0  0  0  0  0  0  0  0
   -5.9604  -11.3420  -11.4080 H   0  0  0  0  0  0  0  0  0  0  0  0
   -5.4313   -7.1285   -6.1947 H   0  0  0  0  0  0  0  0  0  0  0  0
   -7.3991   -7.2213   -3.9907 H   0  0  0  0  0  0  0  0  0  0  0  0
   -5.3123   -7.9449   -2.9859 H   0  0  0  0  0  0  0  0  0  0  0  0
   -5.7804   -6.3794   -2.3535 H   0  0  0  0  0  0  0  0  0  0  0  0
   -2.5876   -7.5005   -2.3806 H   0  0  0  0  0  0  0  0  0  0  0  0
   -0.8665   -6.0262   -2.0311 H   0  0  0  0  0  0  0  0  0  0  0  0
   -0.8015   -4.4003   -2.7766 H   0  0  0  0  0  0  0  0  0  0  0  0
    0.3980   -5.6308   -4.6774 H   0  0  0  0  0  0  0  0  0  0  0  0
    0.5570   -7.0391   -3.6266 H   0  0  0  0  0  0  0  0  0  0  0  0
    1.3599   -4.3325   -2.7015 H   0  0  0  0  0  0  0  0  0  0  0  0
    3.8672   -5.9105   -5.6810 H   0  0  0  0  0  0  0  0  0  0  0  0
    2.1741   -5.5043   -5.9861 H   0  0  0  0  0  0  0  0  0  0  0  0
    2.5962   -6.9098   -4.9632 H   0  0  0  0  0  0  0  0  0  0  0  0
    6.5380   -3.5224   -3.5583 H   0  0  0  0  0  0  0  0  0  0  0  0
    7.1696   -2.5627   -2.2444 H   0  0  0  0  0  0  0  0  0  0  0  0
    5.9712   -1.4389   -4.8207 H   0  0  0  0  0  0  0  0  0  0  0  0
    7.6362   -1.3194   -4.2384 H   0  0  0  0  0  0  0  0  0  0  0  0
    6.3448   -0.4393   -3.4103 H   0  0  0  0  0  0  0  0  0  0  0  0
    4.9617   -1.2866    1.4654 H   0  0  0  0  0  0  0  0  0  0  0  0
    3.8797   -1.2406    3.7100 H   0  0  0  0  0  0  0  0  0  0  0  0
    1.9210   -1.7199    5.1252 H   0  0  0  0  0  0  0  0  0  0  0  0
   -0.2717   -2.2331    4.0905 H   0  0  0  0  0  0  0  0  0  0  0  0
   -0.5302   -2.1301    1.6578 H   0  0  0  0  0  0  0  0  0  0  0  0
    0.5920   -2.2622   -0.6167 H   0  0  0  0  0  0  0  0  0  0  0  0
    1.7401   -2.5898   -2.7497 H   0  0  0  0  0  0  0  0  0  0  0  0
   -0.0762   -6.6622    0.0530 H   0  0  0  0  0  0  0  0  0  0  0  0
   -0.1178   -5.0494   -0.7730 H   0  0  0  0  0  0  0  0  0  0  0  0
   -0.5292   -5.1184    1.8521 H   0  0  0  0  0  0  0  0  0  0  0  0
    0.2314   -3.8989    0.8915 H   0  0  0  0  0  0  0  0  0  0  0  0
    1.4825   -5.7160    2.7946 H   0  0  0  0  0  0  0  0  0  0  0  0
    2.1296   -4.2072    2.2383 H   0  0  0  0  0  0  0  0  0  0  0  0
    3.4640   -5.1880    0.6550 H   0  0  0  0  0  0  0  0  0  0  0  0
    1.4879   -8.0565   -0.3324 H   0  0  0  0  0  0  0  0  0  0  0  0
    1.6773   -9.6757    0.1312 H   0  0  0  0  0  0  0  0  0  0  0  0
    3.0264   -8.8625   -0.7152 H   0  0  0  0  0  0  0  0  0  0  0  0
    2.6673   -9.1828    3.1759 H   0  0  0  0  0  0  0  0  0  0  0  0
    3.5688  -10.9250    0.8111 H   0  0  0  0  0  0  0  0  0  0  0  0
    1.9983  -10.9578    1.6051 H   0  0  0  0  0  0  0  0  0  0  0  0
    1.6199  -12.0063    3.7463 H   0  0  0  0  0  0  0  0  0  0  0  0
    2.4770  -13.5315    5.4794 H   0  0  0  0  0  0  0  0  0  0  0  0
    4.8541  -14.2395    5.4551 H   0  0  0  0  0  0  0  0  0  0  0  0
    6.3552  -13.5108    3.5955 H   0  0  0  0  0  0  0  0  0  0  0  0
    5.4867  -11.9934    1.8455 H   0  0  0  0  0  0  0  0  0  0  0  0
    4.1832   -8.0399    4.2888 H   0  0  0  0  0  0  0  0  0  0  0  0
    6.1279   -7.1128    4.8596 H   0  0  0  0  0  0  0  0  0  0  0  0
    6.9295   -7.9280    3.5235 H   0  0  0  0  0  0  0  0  0  0  0  0
    6.3530   -9.0517    6.3106 H   0  0  0  0  0  0  0  0  0  0  0  0
    7.9371   -8.6974    5.6280 H   0  0  0  0  0  0  0  0  0  0  0  0
    5.9880  -10.8588    4.6861 H   0  0  0  0  0  0  0  0  0  0  0  0
    7.4986  -11.1449    5.5611 H   0  0  0  0  0  0  0  0  0  0  0  0
    7.2262  -10.0049    2.8359 H   0  0  0  0  0  0  0  0  0  0  0  0
    7.7540  -11.5151    3.2244 H   0  0  0  0  0  0  0  0  0  0  0  0
    8.6816  -10.1953    3.6411 H   0  0  0  0  0  0  0  0  0  0  0  0
   -7.5631   -3.4672   -7.0076 H   0  0  0  0  0  0  0  0  0  0  0  0
   -7.8844   -2.9974   -5.3396 H   0  0  0  0  0  0  0  0  0  0  0  0
   -9.9557   -3.1244   -7.0975 H   0  0  0  0  0  0  0  0  0  0  0  0
  -10.1624   -3.7239   -5.4403 H   0  0  0  0  0  0  0  0  0  0  0  0
  -10.0319   -5.2926   -7.9341 H   0  0  0  0  0  0  0  0  0  0  0  0
  -10.7019   -5.7627   -6.3912 H   0  0  0  0  0  0  0  0  0  0  0  0
   -8.6953   -6.9963   -5.9646 H   0  0  0  0  0  0  0  0  0  0  0  0
   -8.1475   -8.3043   -7.8254 H   0  0  0  0  0  0  0  0  0  0  0  0
   -8.6447   -7.9691  -10.1820 H   0  0  0  0  0  0  0  0  0  0  0  0
   -7.8294   -5.9080  -10.8889 H   0  0  0  0  0  0  0  0  0  0  0  0
   -6.8283   -7.0837  -11.7001 H   0  0  0  0  0  0  0  0  0  0  0  0
   -5.2721   -7.0023   -8.4356 H   0  0  0  0  0  0  0  0  0  0  0  0
   -3.7023   -5.3389   -7.5742 H   0  0  0  0  0  0  0  0  0  0  0  0
   -3.3788   -3.2261   -8.8206 H   0  0  0  0  0  0  0  0  0  0  0  0
   -4.3930   -2.9316  -11.0687 H   0  0  0  0  0  0  0  0  0  0  0  0
   -5.8904   -4.6490  -12.0002 H   0  0  0  0  0  0  0  0  0  0  0  0
   -5.3117   -7.9070  -10.6455 H   0  0  0  0  0  0  0  0  0  0  0  0
   -3.6041   -8.5666   -9.7469 H   0  0  0  0  0  0  0  0  0  0  0  0
   -3.9374   -9.0225  -11.2639 H   0  0  0  0  0  0  0  0  0  0  0  0
   -3.1159  -11.7616   -8.7539 H   0  0  0  0  0  0  0  0  0  0  0  0
   -2.4827  -11.9095  -10.2694 H   0  0  0  0  0  0  0  0  0  0  0  0
   -5.5270  -12.9132   -9.6345 H   0  0  0  0  0  0  0  0  0  0  0  0
   -4.1296  -13.8200   -9.2227 H   0  0  0  0  0  0  0  0  0  0  0  0
   -4.7418  -12.9669  -12.0331 H   0  0  0  0  0  0  0  0  0  0  0  0
   -5.5321  -14.1804  -11.3154 H   0  0  0  0  0  0  0  0  0  0  0  0
   -3.8779  -14.2841  -11.5497 H   0  0  0  0  0  0  0  0  0  0  0  0
  1  2  1  0  0  0  0
  1101  1  0  0  0  0
  1102  1  0  0  0  0
  1103  1  0  0  0  0
  2  3  1  0  0  0  0
  2104  1  0  0  0  0
  2105  1  0  0  0  0
  3  4  2  0  0  0  0
  3 16  1  0  0  0  0
  4  5  1  0  0  0  0
  4 17  1  0  0  0  0
  5  6  2  0  0  0  0
  5106  1  0  0  0  0
  6  7  1  0  0  0  0
  6 15  1  0  0  0  0
  7  8  2  0  0  0  0
  7107  1  0  0  0  0
  8  9  1  0  0  0  0
  8 13  1  0  0  0  0
  9 10  2  0  0  0  0
  9108  1  0  0  0  0
 10 11  1  0  0  0  0
 10109  1  0  0  0  0
 11 12  2  0  0  0  0
 11110  1  0  0  0  0
 12 13  1  0  0  0  0
 12111  1  0  0  0  0
 13 14  2  0  0  0  0
 14 15  1  0  0  0  0
 14112  1  0  0  0  0
 15 16  2  0  0  0  0
 17 18  2  0  0  0  0
 17 19  1  0  0  0  0
 19 20  1  0  0  0  0
 19113  1  0  0  0  0
 20 21  1  0  0  0  0
 20 76  1  0  0  0  0
 20114  1  1  0  0  0
 21 22  1  0  0  0  0
 21115  1  0  0  0  0
 21116  1  0  0  0  0
 22 23  2  0  0  0  0
 22 75  1  0  0  0  0
 23 24  1  0  0  0  0
 23117  1  0  0  0  0
 24 25  1  0  0  0  0
 24 74  1  0  0  0  0
 25 26  1  0  0  0  0
 25118  1  0  0  0  0
 25119  1  0  0  0  0
 26120  1  0  0  0  0
 26121  1  0  0  0  0
 27 48  1  0  0  0  0
 27 28  1  0  0  0  0
 27 26  1  0  0  0  0
 27122  1  1  0  0  0
 28 29  1  0  0  0  0
 28 30  1  0  0  0  0
 29123  1  0  0  0  0
 29124  1  0  0  0  0
 29125  1  0  0  0  0
 30 31  2  0  0  0  0
 30 32  1  0  0  0  0
 32 33  2  0  0  0  0
 32 47  1  0  0  0  0
 33 34  1  0  0  0  0
 33 36  1  0  0  0  0
 34 35  1  0  0  0  0
 34126  1  0  0  0  0
 34127  1  0  0  0  0
 35128  1  0  0  0  0
 35129  1  0  0  0  0
 35130  1  0  0  0  0
 36 37  2  0  0  0  0
 37 38  1  0  0  0  0
 37 46  1  0  0  0  0
 38 39  2  0  0  0  0
 38131  1  0  0  0  0
 39 40  1  0  0  0  0
 39 44  1  0  0  0  0
 40 41  2  0  0  0  0
 40132  1  0  0  0  0
 41 42  1  0  0  0  0
 41133  1  0  0  0  0
 42 43  2  0  0  0  0
 42134  1  0  0  0  0
 43 44  1  0  0  0  0
 43135  1  0  0  0  0
 44 45  2  0  0  0  0
 45 46  1  0  0  0  0
 45136  1  0  0  0  0
 46 47  2  0  0  0  0
 47137  1  0  0  0  0
 48 49  2  0  0  0  0
 48 50  1  0  0  0  0
 50 51  1  0  0  0  0
 50 54  1  0  0  0  0
 51 52  1  0  0  0  0
 51138  1  0  0  0  0
 51139  1  0  0  0  0
 52 53  1  0  0  0  0
 52140  1  0  0  0  0
 52141  1  0  0  0  0
 53 54  1  0  0  0  0
 53142  1  0  0  0  0
 53143  1  0  0  0  0
 54 55  1  0  0  0  0
 54144  1  6  0  0  0
 55 56  2  0  0  0  0
 55 57  1  0  0  0  0
 57 58  1  0  0  0  0
 57 59  1  0  0  0  0
 58145  1  0  0  0  0
 58146  1  0  0  0  0
 58147  1  0  0  0  0
 59 60  1  0  0  0  0
 59 67  1  0  0  0  0
 59148  1  1  0  0  0
 60 61  1  0  0  0  0
 60149  1  0  0  0  0
 60150  1  0  0  0  0
 61 62  2  0  0  0  0
 61 66  1  0  0  0  0
 62 63  1  0  0  0  0
 62151  1  0  0  0  0
 63 64  2  0  0  0  0
 63152  1  0  0  0  0
 64 65  1  0  0  0  0
 64153  1  0  0  0  0
 65 66  2  0  0  0  0
 65154  1  0  0  0  0
 66155  1  0  0  0  0
 67 68  2  0  0  0  0
 67 69  1  0  0  0  0
 69 70  1  0  0  0  0
 69156  1  0  0  0  0
 70 71  1  0  0  0  0
 70157  1  0  0  0  0
 70158  1  0  0  0  0
 71 72  1  0  0  0  0
 71159  1  0  0  0  0
 71160  1  0  0  0  0
 72 73  1  0  0  0  0
 72161  1  0  0  0  0
 72162  1  0  0  0  0
 73163  1  0  0  0  0
 73164  1  0  0  0  0
 73165  1  0  0  0  0
 74 75  2  0  0  0  0
 76 77  2  0  0  0  0
 76 78  1  0  0  0  0
 78 79  1  0  0  0  0
 78 82  1  0  0  0  0
 79 80  1  0  0  0  0
 79166  1  0  0  0  0
 79167  1  0  0  0  0
 80 81  1  0  0  0  0
 80168  1  0  0  0  0
 80169  1  0  0  0  0
 81 82  1  0  0  0  0
 81170  1  0  0  0  0
 81171  1  0  0  0  0
 82 83  1  0  0  0  0
 82172  1  1  0  0  0
 83 84  2  0  0  0  0
 83 85  1  0  0  0  0
 85 86  1  0  0  0  0
 85173  1  0  0  0  0
 86 87  1  0  0  0  0
 86 94  1  0  0  0  0
 86174  1  6  0  0  0
 87 88  1  0  0  0  0
 87175  1  0  0  0  0
 87176  1  0  0  0  0
 88 89  2  0  0  0  0
 88 93  1  0  0  0  0
 89 90  1  0  0  0  0
 89177  1  0  0  0  0
 90 91  2  0  0  0  0
 90178  1  0  0  0  0
 91 92  1  0  0  0  0
 91179  1  0  0  0  0
 92 93  2  0  0  0  0
 92180  1  0  0  0  0
 93181  1  0  0  0  0
 94 95  2  0  0  0  0
 94 96  1  0  0  0  0
 96 97  1  0  0  0  0
 96182  1  0  0  0  0
 97 98  1  0  0  0  0
 97183  1  0  0  0  0
 97184  1  0  0  0  0
 98 99  1  0  0  0  0
 98185  1  0  0  0  0
 98186  1  0  0  0  0
 99100  1  0  0  0  0
 99187  1  0  0  0  0
 99188  1  0  0  0  0
100189  1  0  0  0  0
100190  1  0  0  0  0
100191  1  0  0  0  0
M  CHG  2  73   1 100   1
M  END
$$$$
Target_lig_660
 OpenBabel04172516573D

191201  0  0  1  0  0  0  0  0999 V2000
    3.8138    0.8350  -14.3485 C   0  0  0  0  0  0  0  0  0  0  0  0
    5.0199    0.1464  -13.7034 C   0  0  0  0  0  0  0  0  0  0  0  0
    6.0522    1.2002  -13.3649 C   0  0  0  0  0  0  0  0  0  0  0  0
    5.6880    2.2745  -12.5649 C   0  0  0  0  0  0  0  0  0  0  0  0
    6.4897    3.4051  -12.7557 C   0  0  0  0  0  0  0  0  0  0  0  0
    7.6480    3.4217  -13.5700 C   0  0  0  0  0  0  0  0  0  0  0  0
    8.4037    4.5995  -13.7420 C   0  0  0  0  0  0  0  0  0  0  0  0
    9.2296    4.7428  -14.8512 C   0  0  0  0  0  0  0  0  0  0  0  0
    9.6403    6.0205  -15.2615 C   0  0  0  0  0  0  0  0  0  0  0  0
   10.1765    6.2012  -16.5325 C   0  0  0  0  0  0  0  0  0  0  0  0
   10.4331    5.0942  -17.3355 C   0  0  0  0  0  0  0  0  0  0  0  0
   10.1611    3.8031  -16.8673 C   0  0  0  0  0  0  0  0  0  0  0  0
    9.4977    3.6126  -15.6433 C   0  0  0  0  0  0  0  0  0  0  0  0
    8.9667    2.3615  -15.2548 C   0  0  0  0  0  0  0  0  0  0  0  0
    7.9561    2.2695  -14.2928 C   0  0  0  0  0  0  0  0  0  0  0  0
    7.1749    1.1756  -14.1664 N   0  0  0  0  0  0  0  0  0  0  0  0
    4.5866    2.1113  -11.5116 C   0  0  0  0  0  0  0  0  0  0  0  0
    4.6048    1.1205  -10.7686 O   0  0  0  0  0  0  0  0  0  0  0  0
    3.6904    3.1580  -11.1494 N   0  0  0  0  0  0  0  0  0  0  0  0
    2.6156    3.0840  -10.0335 C   0  0  1  0  0  0  0  0  0  0  0  0
    2.8774    3.8997   -8.6634 C   0  0  0  0  0  0  0  0  0  0  0  0
    3.9288    3.3887   -7.7050 C   0  0  0  0  0  0  0  0  0  0  0  0
    4.3954    3.9458   -6.5310 C   0  0  0  0  0  0  0  0  0  0  0  0
    5.5833    3.2952   -6.2746 N   0  0  0  0  0  0  0  0  0  0  0  0
    6.5814    3.5711   -5.2307 C   0  0  0  0  0  0  0  0  0  0  0  0
    5.8584    3.6174   -3.8963 C   0  0  0  0  0  0  0  0  0  0  0  0
    6.6712    3.5968   -2.6047 C   0  0  2  0  0  0  0  0  0  0  0  0
    5.8723    2.8442   -1.5361 N   0  0  0  0  0  0  0  0  0  0  0  0
    4.4118    2.9525   -1.5715 C   0  0  0  0  0  0  0  0  0  0  0  0
    6.4097    2.2289   -0.3689 C   0  0  0  0  0  0  0  0  0  0  0  0
    5.6846    1.7868    0.5200 O   0  0  0  0  0  0  0  0  0  0  0  0
    7.8810    2.0880   -0.2167 C   0  0  0  0  0  0  0  0  0  0  0  0
    8.5924    2.4960    0.9146 C   0  0  0  0  0  0  0  0  0  0  0  0
    7.8889    2.8639    2.2063 C   0  0  0  0  0  0  0  0  0  0  0  0
    8.7940    3.0117    3.4263 C   0  0  0  0  0  0  0  0  0  0  0  0
    9.9520    2.6508    0.8701 N   0  0  0  0  0  0  0  0  0  0  0  0
   10.5987    2.4912   -0.3069 C   0  0  0  0  0  0  0  0  0  0  0  0
   11.9284    2.8732   -0.4736 C   0  0  0  0  0  0  0  0  0  0  0  0
   12.5551    2.8888   -1.7418 C   0  0  0  0  0  0  0  0  0  0  0  0
   13.8625    3.3684   -1.9326 C   0  0  0  0  0  0  0  0  0  0  0  0
   14.4168    3.4539   -3.2144 C   0  0  0  0  0  0  0  0  0  0  0  0
   13.6819    3.0492   -4.3243 C   0  0  0  0  0  0  0  0  0  0  0  0
   12.3998    2.5350   -4.1520 C   0  0  0  0  0  0  0  0  0  0  0  0
   11.8347    2.4463   -2.8702 C   0  0  0  0  0  0  0  0  0  0  0  0
   10.5453    1.9485   -2.6947 C   0  0  0  0  0  0  0  0  0  0  0  0
    9.9340    1.9902   -1.4361 C   0  0  0  0  0  0  0  0  0  0  0  0
    8.5970    1.6449   -1.3192 C   0  0  0  0  0  0  0  0  0  0  0  0
    7.1961    4.9205   -1.9603 C   0  0  0  0  0  0  0  0  0  0  0  0
    7.4042    4.9543   -0.7434 O   0  0  0  0  0  0  0  0  0  0  0  0
    7.6122    5.9855   -2.7714 N   0  0  0  0  0  0  0  0  0  0  0  0
    8.5684    6.8776   -2.0815 C   0  0  0  0  0  0  0  0  0  0  0  0
    7.6527    7.8696   -1.3721 C   0  0  0  0  0  0  0  0  0  0  0  0
    6.6310    8.1761   -2.4515 C   0  0  0  0  0  0  0  0  0  0  0  0
    6.5487    6.8698   -3.2967 C   0  0  1  0  0  0  0  0  0  0  0  0
    6.8701    7.4033   -4.6791 C   0  0  0  0  0  0  0  0  0  0  0  0
    7.9059    8.0384   -4.7920 O   0  0  0  0  0  0  0  0  0  0  0  0
    5.9255    7.3211   -5.6657 N   0  0  0  0  0  0  0  0  0  0  0  0
    6.0829    7.9390   -7.0105 C   0  0  1  0  0  0  0  0  0  0  0  0
    7.1843    8.9916   -7.2654 C   0  0  0  0  0  0  0  0  0  0  0  0
    8.6773    8.6521   -7.1082 C   0  0  0  0  0  0  0  0  0  0  0  0
    9.2475    7.3597   -7.0427 C   0  0  0  0  0  0  0  0  0  0  0  0
   10.4489    7.1356   -6.3568 C   0  0  0  0  0  0  0  0  0  0  0  0
   11.1391    8.2050   -5.8057 C   0  0  0  0  0  0  0  0  0  0  0  0
   10.6743    9.5006   -6.0122 C   0  0  0  0  0  0  0  0  0  0  0  0
    9.4735    9.7264   -6.6869 C   0  0  0  0  0  0  0  0  0  0  0  0
    6.3279    6.8570   -8.0134 C   0  0  0  0  0  0  0  0  0  0  0  0
    6.6894    5.7646   -7.5969 O   0  0  0  0  0  0  0  0  0  0  0  0
    6.1254    7.1608   -9.3454 N   0  0  0  0  0  0  0  0  0  0  0  0
    6.8501    6.5255  -10.4490 C   0  0  0  0  0  0  0  0  0  0  0  0
    7.5480    5.1955  -10.1294 C   0  0  0  0  0  0  0  0  0  0  0  0
    6.6284    4.1148   -9.5993 C   0  0  0  0  0  0  0  0  0  0  0  0
    5.2773    4.4494  -10.0440 N   0  3  0  0  0  0  0  0  0  0  0  0
    5.7216    2.2663   -7.1292 N   0  0  0  0  0  0  0  0  0  0  0  0
    4.7307    2.3292   -8.0142 N   0  0  0  0  0  0  0  0  0  0  0  0
    1.4126    3.7705  -10.7001 C   0  0  0  0  0  0  0  0  0  0  0  0
    1.6284    4.6740  -11.5144 O   0  0  0  0  0  0  0  0  0  0  0  0
    0.1583    3.3950  -10.3116 N   0  0  0  0  0  0  0  0  0  0  0  0
   -1.0445    3.8725  -10.9640 C   0  0  0  0  0  0  0  0  0  0  0  0
   -2.0109    4.0742   -9.8133 C   0  0  0  0  0  0  0  0  0  0  0  0
   -1.6193    3.0195   -8.7836 C   0  0  0  0  0  0  0  0  0  0  0  0
   -0.1749    2.6501   -9.1114 C   0  0  1  0  0  0  0  0  0  0  0  0
   -0.0282    1.1197   -9.2087 C   0  0  0  0  0  0  0  0  0  0  0  0
   -0.1336    0.5331  -10.2822 O   0  0  0  0  0  0  0  0  0  0  0  0
    0.0935    0.4443   -7.9935 N   0  0  0  0  0  0  0  0  0  0  0  0
    0.5709    1.1052   -6.7853 C   0  0  0  0  0  0  0  0  0  0  0  0
   -0.5423   -0.9032   -7.8885 C   0  0  1  0  0  0  0  0  0  0  0  0
    0.2531   -2.0844   -8.5143 C   0  0  0  0  0  0  0  0  0  0  0  0
    1.5680   -2.4459   -7.8576 C   0  0  0  0  0  0  0  0  0  0  0  0
    1.7655   -3.7077   -7.2685 C   0  0  0  0  0  0  0  0  0  0  0  0
    2.9420   -3.9919   -6.5723 C   0  0  0  0  0  0  0  0  0  0  0  0
    3.9502   -3.0349   -6.4940 C   0  0  0  0  0  0  0  0  0  0  0  0
    3.8049   -1.8183   -7.1562 C   0  0  0  0  0  0  0  0  0  0  0  0
    2.6287   -1.5351   -7.8497 C   0  0  0  0  0  0  0  0  0  0  0  0
   -1.1510   -1.1327   -6.4639 C   0  0  0  0  0  0  0  0  0  0  0  0
   -1.8365   -0.2687   -5.8956 O   0  0  0  0  0  0  0  0  0  0  0  0
   -0.8140   -2.2676   -5.7738 N   0  0  0  0  0  0  0  0  0  0  0  0
   -1.2880   -2.5723   -4.4406 C   0  0  0  0  0  0  0  0  0  0  0  0
   -0.3925   -2.0074   -3.3352 C   0  0  0  0  0  0  0  0  0  0  0  0
   -0.1980   -0.4975   -3.3374 C   0  0  0  0  0  0  0  0  0  0  0  0
   -1.4895    0.2234   -3.3224 N   0  3  0  0  0  0  0  0  0  0  0  0
    3.1598    0.1066  -14.8323 H   0  0  0  0  0  0  0  0  0  0  0  0
    4.1248    1.5745  -15.0972 H   0  0  0  0  0  0  0  0  0  0  0  0
    3.2110    1.3701  -13.6073 H   0  0  0  0  0  0  0  0  0  0  0  0
    5.4506   -0.5645  -14.4187 H   0  0  0  0  0  0  0  0  0  0  0  0
    4.7303   -0.4179  -12.8140 H   0  0  0  0  0  0  0  0  0  0  0  0
    6.2207    4.3719  -12.3783 H   0  0  0  0  0  0  0  0  0  0  0  0
    8.2338    5.4730  -13.1197 H   0  0  0  0  0  0  0  0  0  0  0  0
    9.4386    6.9003  -14.6548 H   0  0  0  0  0  0  0  0  0  0  0  0
   10.3521    7.2056  -16.9123 H   0  0  0  0  0  0  0  0  0  0  0  0
   10.8102    5.2391  -18.3458 H   0  0  0  0  0  0  0  0  0  0  0  0
   10.3644    2.9592  -17.5235 H   0  0  0  0  0  0  0  0  0  0  0  0
    9.2066    1.4733  -15.8365 H   0  0  0  0  0  0  0  0  0  0  0  0
    3.3327    3.6329  -12.0145 H   0  0  0  0  0  0  0  0  0  0  0  0
    2.4277    2.0330   -9.8257 H   0  0  0  0  0  0  0  0  0  0  0  0
    1.9754    4.0201   -8.0651 H   0  0  0  0  0  0  0  0  0  0  0  0
    3.1108    4.9493   -8.8977 H   0  0  0  0  0  0  0  0  0  0  0  0
    4.0419    4.7499   -5.9040 H   0  0  0  0  0  0  0  0  0  0  0  0
    7.0896    4.5084   -5.4700 H   0  0  0  0  0  0  0  0  0  0  0  0
    7.3240    2.7631   -5.2595 H   0  0  0  0  0  0  0  0  0  0  0  0
    5.2870    2.6832   -3.9250 H   0  0  0  0  0  0  0  0  0  0  0  0
    5.1314    4.4311   -3.8744 H   0  0  0  0  0  0  0  0  0  0  0  0
    7.5744    3.0455   -2.8420 H   0  0  0  0  0  0  0  0  0  0  0  0
    3.9200    2.4987   -0.7100 H   0  0  0  0  0  0  0  0  0  0  0  0
    4.0302    2.4148   -2.4453 H   0  0  0  0  0  0  0  0  0  0  0  0
    4.1205    4.0044   -1.6380 H   0  0  0  0  0  0  0  0  0  0  0  0
    7.1633    2.0802    2.4525 H   0  0  0  0  0  0  0  0  0  0  0  0
    7.3375    3.7990    2.0570 H   0  0  0  0  0  0  0  0  0  0  0  0
    9.2549    2.0533    3.6904 H   0  0  0  0  0  0  0  0  0  0  0  0
    8.2084    3.3471    4.2899 H   0  0  0  0  0  0  0  0  0  0  0  0
    9.5922    3.7416    3.2601 H   0  0  0  0  0  0  0  0  0  0  0  0
   12.4675    3.2330    0.4011 H   0  0  0  0  0  0  0  0  0  0  0  0
   14.4569    3.6977   -1.0827 H   0  0  0  0  0  0  0  0  0  0  0  0
   15.4230    3.8451   -3.3456 H   0  0  0  0  0  0  0  0  0  0  0  0
   14.1089    3.1289   -5.3211 H   0  0  0  0  0  0  0  0  0  0  0  0
   11.8402    2.2184   -5.0287 H   0  0  0  0  0  0  0  0  0  0  0  0
    9.9834    1.6050   -3.5600 H   0  0  0  0  0  0  0  0  0  0  0  0
    8.0688    1.1906   -2.1524 H   0  0  0  0  0  0  0  0  0  0  0  0
    9.2000    7.3748   -2.8284 H   0  0  0  0  0  0  0  0  0  0  0  0
    9.2347    6.3465   -1.3927 H   0  0  0  0  0  0  0  0  0  0  0  0
    8.1740    8.7601   -1.0148 H   0  0  0  0  0  0  0  0  0  0  0  0
    7.1370    7.4062   -0.5257 H   0  0  0  0  0  0  0  0  0  0  0  0
    7.0095    9.0381   -3.0096 H   0  0  0  0  0  0  0  0  0  0  0  0
    5.6474    8.4795   -2.0825 H   0  0  0  0  0  0  0  0  0  0  0  0
    5.5661    6.4053   -3.2357 H   0  0  0  0  0  0  0  0  0  0  0  0
    5.3600    6.4836   -5.6397 H   0  0  0  0  0  0  0  0  0  0  0  0
    5.0891    8.3488   -7.2339 H   0  0  0  0  0  0  0  0  0  0  0  0
    6.9489    9.8017   -6.5627 H   0  0  0  0  0  0  0  0  0  0  0  0
    7.0569    9.4129   -8.2701 H   0  0  0  0  0  0  0  0  0  0  0  0
    8.7297    6.4567   -7.3220 H   0  0  0  0  0  0  0  0  0  0  0  0
   10.7871    6.1195   -6.1614 H   0  0  0  0  0  0  0  0  0  0  0  0
   12.0109    8.0293   -5.1817 H   0  0  0  0  0  0  0  0  0  0  0  0
   11.1963   10.3393   -5.5624 H   0  0  0  0  0  0  0  0  0  0  0  0
    9.0828   10.7400   -6.7285 H   0  0  0  0  0  0  0  0  0  0  0  0
    5.7973    8.1037   -9.5504 H   0  0  0  0  0  0  0  0  0  0  0  0
    7.5677    7.2432  -10.8478 H   0  0  0  0  0  0  0  0  0  0  0  0
    6.0999    6.4142  -11.2515 H   0  0  0  0  0  0  0  0  0  0  0  0
    8.3825    5.3379   -9.4326 H   0  0  0  0  0  0  0  0  0  0  0  0
    7.9905    4.7961  -11.0398 H   0  0  0  0  0  0  0  0  0  0  0  0
    6.5291    4.0923   -8.5270 H   0  0  0  0  0  0  0  0  0  0  0  0
    6.8650    3.1096   -9.8736 H   0  0  0  0  0  0  0  0  0  0  0  0
    4.8675    5.3000   -9.6496 H   0  0  0  0  0  0  0  0  0  0  0  0
    4.7690    3.6096   -9.7731 H   0  0  0  0  0  0  0  0  0  0  0  0
    5.0549    4.4733  -11.0372 H   0  0  0  0  0  0  0  0  0  0  0  0
   -1.3898    3.0776  -11.6317 H   0  0  0  0  0  0  0  0  0  0  0  0
   -0.8769    4.7806  -11.5497 H   0  0  0  0  0  0  0  0  0  0  0  0
   -3.0558    3.9828  -10.1179 H   0  0  0  0  0  0  0  0  0  0  0  0
   -1.8688    5.0732   -9.3838 H   0  0  0  0  0  0  0  0  0  0  0  0
   -2.2854    2.1519   -8.8215 H   0  0  0  0  0  0  0  0  0  0  0  0
   -1.6774    3.4366   -7.7721 H   0  0  0  0  0  0  0  0  0  0  0  0
    0.4465    3.0325   -8.3181 H   0  0  0  0  0  0  0  0  0  0  0  0
    1.3391    1.8463   -7.0123 H   0  0  0  0  0  0  0  0  0  0  0  0
    1.0325    0.3791   -6.1189 H   0  0  0  0  0  0  0  0  0  0  0  0
   -0.2673    1.6151   -6.3005 H   0  0  0  0  0  0  0  0  0  0  0  0
   -1.4417   -0.8259   -8.5189 H   0  0  0  0  0  0  0  0  0  0  0  0
    0.4490   -1.8935   -9.5767 H   0  0  0  0  0  0  0  0  0  0  0  0
   -0.4020   -2.9669   -8.4967 H   0  0  0  0  0  0  0  0  0  0  0  0
    1.0108   -4.4901   -7.3448 H   0  0  0  0  0  0  0  0  0  0  0  0
    3.0844   -4.9663   -6.1070 H   0  0  0  0  0  0  0  0  0  0  0  0
    4.8691   -3.2559   -5.9559 H   0  0  0  0  0  0  0  0  0  0  0  0
    4.6189   -1.0969   -7.1569 H   0  0  0  0  0  0  0  0  0  0  0  0
    2.5615   -0.6047   -8.4083 H   0  0  0  0  0  0  0  0  0  0  0  0
   -0.2943   -3.0004   -6.2388 H   0  0  0  0  0  0  0  0  0  0  0  0
   -1.3188   -3.6637   -4.3583 H   0  0  0  0  0  0  0  0  0  0  0  0
   -2.3149   -2.2077   -4.3331 H   0  0  0  0  0  0  0  0  0  0  0  0
    0.5982   -2.4744   -3.4082 H   0  0  0  0  0  0  0  0  0  0  0  0
   -0.8086   -2.3070   -2.3661 H   0  0  0  0  0  0  0  0  0  0  0  0
    0.3433   -0.1640   -4.2217 H   0  0  0  0  0  0  0  0  0  0  0  0
    0.3646   -0.1672   -2.4595 H   0  0  0  0  0  0  0  0  0  0  0  0
   -2.0048    0.0332   -4.2096 H   0  0  0  0  0  0  0  0  0  0  0  0
   -1.3626    1.2408   -3.3006 H   0  0  0  0  0  0  0  0  0  0  0  0
   -2.0917   -0.0368   -2.5322 H   0  0  0  0  0  0  0  0  0  0  0  0
  1  2  1  0  0  0  0
  1101  1  0  0  0  0
  1102  1  0  0  0  0
  1103  1  0  0  0  0
  2  3  1  0  0  0  0
  2104  1  0  0  0  0
  2105  1  0  0  0  0
  3  4  2  0  0  0  0
  3 16  1  0  0  0  0
  4  5  1  0  0  0  0
  4 17  1  0  0  0  0
  5  6  2  0  0  0  0
  5106  1  0  0  0  0
  6  7  1  0  0  0  0
  6 15  1  0  0  0  0
  7  8  2  0  0  0  0
  7107  1  0  0  0  0
  8  9  1  0  0  0  0
  8 13  1  0  0  0  0
  9 10  2  0  0  0  0
  9108  1  0  0  0  0
 10 11  1  0  0  0  0
 10109  1  0  0  0  0
 11 12  2  0  0  0  0
 11110  1  0  0  0  0
 12 13  1  0  0  0  0
 12111  1  0  0  0  0
 13 14  2  0  0  0  0
 14 15  1  0  0  0  0
 14112  1  0  0  0  0
 15 16  2  0  0  0  0
 17 18  2  0  0  0  0
 17 19  1  0  0  0  0
 19 20  1  0  0  0  0
 19113  1  0  0  0  0
 20 21  1  0  0  0  0
 20 75  1  0  0  0  0
 20114  1  1  0  0  0
 21 22  1  0  0  0  0
 21115  1  0  0  0  0
 21116  1  0  0  0  0
 22 23  2  0  0  0  0
 22 74  1  0  0  0  0
 23 24  1  0  0  0  0
 23117  1  0  0  0  0
 24 25  1  0  0  0  0
 24 73  1  0  0  0  0
 25 26  1  0  0  0  0
 25118  1  0  0  0  0
 25119  1  0  0  0  0
 26120  1  0  0  0  0
 26121  1  0  0  0  0
 27 48  1  0  0  0  0
 27 28  1  0  0  0  0
 27 26  1  0  0  0  0
 27122  1  6  0  0  0
 28 29  1  0  0  0  0
 28 30  1  0  0  0  0
 29123  1  0  0  0  0
 29124  1  0  0  0  0
 29125  1  0  0  0  0
 30 31  2  0  0  0  0
 30 32  1  0  0  0  0
 32 33  2  0  0  0  0
 32 47  1  0  0  0  0
 33 34  1  0  0  0  0
 33 36  1  0  0  0  0
 34 35  1  0  0  0  0
 34126  1  0  0  0  0
 34127  1  0  0  0  0
 35128  1  0  0  0  0
 35129  1  0  0  0  0
 35130  1  0  0  0  0
 36 37  2  0  0  0  0
 37 38  1  0  0  0  0
 37 46  1  0  0  0  0
 38 39  2  0  0  0  0
 38131  1  0  0  0  0
 39 40  1  0  0  0  0
 39 44  1  0  0  0  0
 40 41  2  0  0  0  0
 40132  1  0  0  0  0
 41 42  1  0  0  0  0
 41133  1  0  0  0  0
 42 43  2  0  0  0  0
 42134  1  0  0  0  0
 43 44  1  0  0  0  0
 43135  1  0  0  0  0
 44 45  2  0  0  0  0
 45 46  1  0  0  0  0
 45136  1  0  0  0  0
 46 47  2  0  0  0  0
 47137  1  0  0  0  0
 48 49  2  0  0  0  0
 48 50  1  0  0  0  0
 50 51  1  0  0  0  0
 50 54  1  0  0  0  0
 51 52  1  0  0  0  0
 51138  1  0  0  0  0
 51139  1  0  0  0  0
 52 53  1  0  0  0  0
 52140  1  0  0  0  0
 52141  1  0  0  0  0
 53 54  1  0  0  0  0
 53142  1  0  0  0  0
 53143  1  0  0  0  0
 54 55  1  0  0  0  0
 54144  1  1  0  0  0
 55 56  2  0  0  0  0
 55 57  1  0  0  0  0
 57 58  1  0  0  0  0
 57145  1  0  0  0  0
 58 59  1  0  0  0  0
 58 66  1  0  0  0  0
 58146  1  6  0  0  0
 59 60  1  0  0  0  0
 59147  1  0  0  0  0
 59148  1  0  0  0  0
 60 61  2  0  0  0  0
 60 65  1  0  0  0  0
 61 62  1  0  0  0  0
 61149  1  0  0  0  0
 62 63  2  0  0  0  0
 62150  1  0  0  0  0
 63 64  1  0  0  0  0
 63151  1  0  0  0  0
 64 65  2  0  0  0  0
 64152  1  0  0  0  0
 65153  1  0  0  0  0
 66 67  2  0  0  0  0
 66 68  1  0  0  0  0
 68 69  1  0  0  0  0
 68154  1  0  0  0  0
 69 70  1  0  0  0  0
 69155  1  0  0  0  0
 69156  1  0  0  0  0
 70 71  1  0  0  0  0
 70157  1  0  0  0  0
 70158  1  0  0  0  0
 71 72  1  0  0  0  0
 71159  1  0  0  0  0
 71160  1  0  0  0  0
 72161  1  0  0  0  0
 72162  1  0  0  0  0
 72163  1  0  0  0  0
 73 74  2  0  0  0  0
 75 76  2  0  0  0  0
 75 77  1  0  0  0  0
 77 78  1  0  0  0  0
 77 81  1  0  0  0  0
 78 79  1  0  0  0  0
 78164  1  0  0  0  0
 78165  1  0  0  0  0
 79 80  1  0  0  0  0
 79166  1  0  0  0  0
 79167  1  0  0  0  0
 80 81  1  0  0  0  0
 80168  1  0  0  0  0
 80169  1  0  0  0  0
 81 82  1  0  0  0  0
 81170  1  1  0  0  0
 82 83  2  0  0  0  0
 82 84  1  0  0  0  0
 84 85  1  0  0  0  0
 84 86  1  0  0  0  0
 85171  1  0  0  0  0
 85172  1  0  0  0  0
 85173  1  0  0  0  0
 86 87  1  0  0  0  0
 86 94  1  0  0  0  0
 86174  1  6  0  0  0
 87 88  1  0  0  0  0
 87175  1  0  0  0  0
 87176  1  0  0  0  0
 88 89  2  0  0  0  0
 88 93  1  0  0  0  0
 89 90  1  0  0  0  0
 89177  1  0  0  0  0
 90 91  2  0  0  0  0
 90178  1  0  0  0  0
 91 92  1  0  0  0  0
 91179  1  0  0  0  0
 92 93  2  0  0  0  0
 92180  1  0  0  0  0
 93181  1  0  0  0  0
 94 95  2  0  0  0  0
 94 96  1  0  0  0  0
 96 97  1  0  0  0  0
 96182  1  0  0  0  0
 97 98  1  0  0  0  0
 97183  1  0  0  0  0
 97184  1  0  0  0  0
 98 99  1  0  0  0  0
 98185  1  0  0  0  0
 98186  1  0  0  0  0
 99100  1  0  0  0  0
 99187  1  0  0  0  0
 99188  1  0  0  0  0
100189  1  0  0  0  0
100190  1  0  0  0  0
100191  1  0  0  0  0
M  CHG  2  72   1 100   1
M  END
$$$$
Target_lig_661
 OpenBabel04172516573D

197207  0  0  1  0  0  0  0  0999 V2000
    7.1132   -6.7327   -1.2926 C   0  0  0  0  0  0  0  0  0  0  0  0
    5.8421   -7.6386   -1.1755 C   0  0  0  0  0  0  0  0  0  0  0  0
    5.2460   -8.8967   -1.9378 C   0  0  0  0  0  0  0  0  0  0  0  0
    4.0266   -8.9279   -2.6284 C   0  0  0  0  0  0  0  0  0  0  0  0
    3.5973  -10.2472   -2.9536 C   0  0  0  0  0  0  0  0  0  0  0  0
    4.3525  -11.4671   -2.8866 C   0  0  0  0  0  0  0  0  0  0  0  0
    3.9817  -12.7568   -3.4591 C   0  0  0  0  0  0  0  0  0  0  0  0
    4.9288  -13.7855   -3.7671 C   0  0  0  0  0  0  0  0  0  0  0  0
    4.6498  -15.0501   -4.3648 C   0  0  0  0  0  0  0  0  0  0  0  0
    5.6668  -15.9919   -4.6071 C   0  0  0  0  0  0  0  0  0  0  0  0
    6.9923  -15.6506   -4.3848 C   0  0  0  0  0  0  0  0  0  0  0  0
    7.2863  -14.3927   -3.8627 C   0  0  0  0  0  0  0  0  0  0  0  0
    6.2558  -13.5049   -3.4560 C   0  0  0  0  0  0  0  0  0  0  0  0
    6.5276  -12.3441   -2.6981 C   0  0  0  0  0  0  0  0  0  0  0  0
    5.6223  -11.2984   -2.4155 C   0  0  0  0  0  0  0  0  0  0  0  0
    5.9723  -10.1034   -1.7925 N   0  0  0  0  0  0  0  0  0  0  0  0
    3.2617   -7.6229   -2.9742 C   0  0  0  0  0  0  0  0  0  0  0  0
    3.8970   -6.5618   -2.9283 O   0  0  0  0  0  0  0  0  0  0  0  0
    1.8524   -7.5971   -3.1323 N   0  0  0  0  0  0  0  0  0  0  0  0
    1.1316   -6.3322   -2.9573 C   0  0  0  0  0  0  0  0  0  0  0  0
    1.0952   -8.6425   -3.8341 C   0  0  1  0  0  0  0  0  0  0  0  0
    0.4356   -9.7145   -2.9159 C   0  0  0  0  0  0  0  0  0  0  0  0
   -0.8618   -9.5102   -2.0989 C   0  0  0  0  0  0  0  0  0  0  0  0
   -0.7116   -9.1149   -0.7021 N   0  0  0  0  0  0  0  0  0  0  0  0
   -1.4952   -8.3105    0.0895 C   0  0  0  0  0  0  0  0  0  0  0  0
   -0.8449   -8.2682    1.3188 C   0  0  0  0  0  0  0  0  0  0  0  0
   -1.1655   -7.5358    2.6044 C   0  0  0  0  0  0  0  0  0  0  0  0
   -0.0141   -6.8870    3.4803 C   0  0  2  0  0  0  0  0  0  0  0  0
    0.2234   -5.3643    3.2090 N   0  0  0  0  0  0  0  0  0  0  0  0
   -0.5379   -4.6809    2.1459 C   0  0  0  0  0  0  0  0  0  0  0  0
    0.7996   -4.4320    4.1305 C   0  0  0  0  0  0  0  0  0  0  0  0
    0.9230   -3.2420    3.8406 O   0  0  0  0  0  0  0  0  0  0  0  0
    1.3740   -4.8229    5.4366 C   0  0  0  0  0  0  0  0  0  0  0  0
    1.0656   -4.2044    6.6499 C   0  0  0  0  0  0  0  0  0  0  0  0
    0.0814   -3.0527    6.7080 C   0  0  0  0  0  0  0  0  0  0  0  0
   -0.1873   -2.5040    8.1045 C   0  0  0  0  0  0  0  0  0  0  0  0
    1.7466   -4.4921    7.8073 N   0  0  0  0  0  0  0  0  0  0  0  0
    2.7944   -5.3486    7.7908 C   0  0  0  0  0  0  0  0  0  0  0  0
    3.6065   -5.5863    8.9038 C   0  0  0  0  0  0  0  0  0  0  0  0
    4.7635   -6.4111    8.8446 C   0  0  0  0  0  0  0  0  0  0  0  0
    5.6688   -6.5489    9.9089 C   0  0  0  0  0  0  0  0  0  0  0  0
    6.8199   -7.3339    9.7819 C   0  0  0  0  0  0  0  0  0  0  0  0
    7.0659   -8.0460    8.6115 C   0  0  0  0  0  0  0  0  0  0  0  0
    6.1776   -7.9426    7.5507 C   0  0  0  0  0  0  0  0  0  0  0  0
    5.0640   -7.0904    7.6469 C   0  0  0  0  0  0  0  0  0  0  0  0
    4.2607   -6.8518    6.5418 C   0  0  0  0  0  0  0  0  0  0  0  0
    3.1798   -5.9640    6.6032 C   0  0  0  0  0  0  0  0  0  0  0  0
    2.5006   -5.6263    5.4399 C   0  0  0  0  0  0  0  0  0  0  0  0
    1.3314   -7.7239    3.5156 C   0  0  0  0  0  0  0  0  0  0  0  0
    2.3557   -7.1991    3.0938 O   0  0  0  0  0  0  0  0  0  0  0  0
    1.4331   -8.9821    4.0496 N   0  0  0  0  0  0  0  0  0  0  0  0
    0.3541   -9.8045    4.5574 C   0  0  0  0  0  0  0  0  0  0  0  0
    0.9157  -10.3516    5.8518 C   0  0  0  0  0  0  0  0  0  0  0  0
    2.3792  -10.6192    5.5297 C   0  0  0  0  0  0  0  0  0  0  0  0
    2.7284   -9.6348    4.3916 C   0  0  1  0  0  0  0  0  0  0  0  0
    3.4039  -10.4401    3.2407 C   0  0  0  0  0  0  0  0  0  0  0  0
    2.8763  -11.4689    2.8074 O   0  0  0  0  0  0  0  0  0  0  0  0
    4.6078   -9.9732    2.6767 N   0  0  0  0  0  0  0  0  0  0  0  0
    5.1966  -10.8425    1.6578 C   0  0  0  0  0  0  0  0  0  0  0  0
    4.9228   -8.5258    2.6333 C   0  0  1  0  0  0  0  0  0  0  0  0
    6.4361   -8.1371    2.6895 C   0  0  0  0  0  0  0  0  0  0  0  0
    6.7551   -6.6359    2.6252 C   0  0  0  0  0  0  0  0  0  0  0  0
    5.8815   -5.6518    3.1192 C   0  0  0  0  0  0  0  0  0  0  0  0
    5.9712   -4.3192    2.6969 C   0  0  0  0  0  0  0  0  0  0  0  0
    6.9819   -3.9335    1.8272 C   0  0  0  0  0  0  0  0  0  0  0  0
    7.9588   -4.8586    1.4730 C   0  0  0  0  0  0  0  0  0  0  0  0
    7.8621   -6.1971    1.8900 C   0  0  0  0  0  0  0  0  0  0  0  0
    4.2309   -7.8513    1.4356 C   0  0  0  0  0  0  0  0  0  0  0  0
    4.5881   -6.7540    1.0355 O   0  0  0  0  0  0  0  0  0  0  0  0
    3.1269   -8.3820    0.8483 N   0  0  0  0  0  0  0  0  0  0  0  0
    2.4551   -7.5870   -0.1281 C   0  0  0  0  0  0  0  0  0  0  0  0
    1.6293   -6.4082    0.3350 C   0  0  0  0  0  0  0  0  0  0  0  0
    2.3482   -5.1645    0.8389 C   0  0  0  0  0  0  0  0  0  0  0  0
    3.3206   -4.6331   -0.1219 N   0  3  0  0  0  0  0  0  0  0  0  0
    0.2019   -9.1487    1.2627 N   0  0  0  0  0  0  0  0  0  0  0  0
    0.2427   -9.6918    0.0555 N   0  0  0  0  0  0  0  0  0  0  0  0
    0.1818   -8.1205   -4.9659 C   0  0  0  0  0  0  0  0  0  0  0  0
   -0.8560   -7.5226   -4.6806 O   0  0  0  0  0  0  0  0  0  0  0  0
    0.6844   -8.2186   -6.2675 N   0  0  0  0  0  0  0  0  0  0  0  0
   -0.0762   -7.6187   -7.3495 C   0  0  0  0  0  0  0  0  0  0  0  0
   -0.6532   -8.8319   -8.0493 C   0  0  0  0  0  0  0  0  0  0  0  0
    0.4812   -9.8525   -7.9970 C   0  0  0  0  0  0  0  0  0  0  0  0
    1.3525   -9.4334   -6.7921 C   0  0  1  0  0  0  0  0  0  0  0  0
    2.8162   -9.1811   -7.3169 C   0  0  0  0  0  0  0  0  0  0  0  0
    2.9704   -8.3833   -8.2420 O   0  0  0  0  0  0  0  0  0  0  0  0
    3.9082   -9.8648   -6.7416 N   0  0  0  0  0  0  0  0  0  0  0  0
    3.6329  -11.0732   -6.0151 C   0  0  0  0  0  0  0  0  0  0  0  0
    5.2151   -9.9305   -7.4786 C   0  0  1  0  0  0  0  0  0  0  0  0
    5.7356   -8.6890   -8.2312 C   0  0  0  0  0  0  0  0  0  0  0  0
    5.8322   -7.3553   -7.5211 C   0  0  0  0  0  0  0  0  0  0  0  0
    6.7578   -7.0995   -6.5045 C   0  0  0  0  0  0  0  0  0  0  0  0
    6.9071   -5.8318   -5.9432 C   0  0  0  0  0  0  0  0  0  0  0  0
    6.1885   -4.7678   -6.4683 C   0  0  0  0  0  0  0  0  0  0  0  0
    5.2846   -4.9894   -7.5021 C   0  0  0  0  0  0  0  0  0  0  0  0
    5.0893   -6.2753   -8.0038 C   0  0  0  0  0  0  0  0  0  0  0  0
    6.4485  -10.5131   -6.7271 C   0  0  0  0  0  0  0  0  0  0  0  0
    7.1806  -11.3494   -7.2521 O   0  0  0  0  0  0  0  0  0  0  0  0
    6.7852   -9.9427   -5.5173 N   0  0  0  0  0  0  0  0  0  0  0  0
    8.0443  -10.3032   -4.8687 C   0  0  0  0  0  0  0  0  0  0  0  0
    8.8175   -9.1763   -4.2146 C   0  0  0  0  0  0  0  0  0  0  0  0
    7.9733   -8.5775   -3.1631 C   0  0  0  0  0  0  0  0  0  0  0  0
    8.1843   -9.3461   -1.8890 N   0  3  0  0  0  0  0  0  0  0  0  0
    7.1666   -6.1145   -0.4089 H   0  0  0  0  0  0  0  0  0  0  0  0
    7.0905   -6.0134   -2.1159 H   0  0  0  0  0  0  0  0  0  0  0  0
    8.1008   -7.1987   -1.2196 H   0  0  0  0  0  0  0  0  0  0  0  0
    5.0889   -6.8710   -1.1174 H   0  0  0  0  0  0  0  0  0  0  0  0
    5.9944   -8.0593   -0.1804 H   0  0  0  0  0  0  0  0  0  0  0  0
    2.6382  -10.4341   -3.3873 H   0  0  0  0  0  0  0  0  0  0  0  0
    2.9493  -12.9251   -3.7847 H   0  0  0  0  0  0  0  0  0  0  0  0
    3.6319  -15.3399   -4.6175 H   0  0  0  0  0  0  0  0  0  0  0  0
    5.4295  -16.9927   -4.9687 H   0  0  0  0  0  0  0  0  0  0  0  0
    7.7905  -16.3658   -4.5875 H   0  0  0  0  0  0  0  0  0  0  0  0
    8.3378  -14.1304   -3.7498 H   0  0  0  0  0  0  0  0  0  0  0  0
    7.5737  -12.2239   -2.4316 H   0  0  0  0  0  0  0  0  0  0  0  0
    1.7103   -5.6213   -2.3669 H   0  0  0  0  0  0  0  0  0  0  0  0
    0.1947   -6.5510   -2.4294 H   0  0  0  0  0  0  0  0  0  0  0  0
    0.9137   -5.8536   -3.9133 H   0  0  0  0  0  0  0  0  0  0  0  0
    1.8836   -9.1235   -4.4007 H   0  0  0  0  0  0  0  0  0  0  0  0
    1.1767  -10.0685   -2.1967 H   0  0  0  0  0  0  0  0  0  0  0  0
    0.2415  -10.5640   -3.5864 H   0  0  0  0  0  0  0  0  0  0  0  0
   -1.3128  -10.5101   -2.0132 H   0  0  0  0  0  0  0  0  0  0  0  0
   -1.5863   -8.8648   -2.5941 H   0  0  0  0  0  0  0  0  0  0  0  0
   -2.4195   -7.8828   -0.2727 H   0  0  0  0  0  0  0  0  0  0  0  0
   -1.6771   -8.2695    3.2335 H   0  0  0  0  0  0  0  0  0  0  0  0
   -1.9312   -6.7818    2.3886 H   0  0  0  0  0  0  0  0  0  0  0  0
   -0.3717   -6.8753    4.5145 H   0  0  0  0  0  0  0  0  0  0  0  0
   -0.1348   -3.6825    1.9281 H   0  0  0  0  0  0  0  0  0  0  0  0
   -1.5727   -4.5446    2.4582 H   0  0  0  0  0  0  0  0  0  0  0  0
   -0.5058   -5.2337    1.2079 H   0  0  0  0  0  0  0  0  0  0  0  0
   -0.8683   -3.3610    6.2569 H   0  0  0  0  0  0  0  0  0  0  0  0
    0.4919   -2.2286    6.1109 H   0  0  0  0  0  0  0  0  0  0  0  0
   -0.6929   -3.2460    8.7297 H   0  0  0  0  0  0  0  0  0  0  0  0
   -0.8254   -1.6168    8.0408 H   0  0  0  0  0  0  0  0  0  0  0  0
    0.7401   -2.2071    8.6069 H   0  0  0  0  0  0  0  0  0  0  0  0
    3.3628   -5.0649    9.8290 H   0  0  0  0  0  0  0  0  0  0  0  0
    5.5172   -6.0027   10.8356 H   0  0  0  0  0  0  0  0  0  0  0  0
    7.5359   -7.3816   10.6011 H   0  0  0  0  0  0  0  0  0  0  0  0
    7.9528   -8.6673    8.5249 H   0  0  0  0  0  0  0  0  0  0  0  0
    6.3850   -8.4858    6.6316 H   0  0  0  0  0  0  0  0  0  0  0  0
    4.5226   -7.3257    5.6061 H   0  0  0  0  0  0  0  0  0  0  0  0
    2.9598   -5.8848    4.5024 H   0  0  0  0  0  0  0  0  0  0  0  0
    0.1945  -10.6007    3.8193 H   0  0  0  0  0  0  0  0  0  0  0  0
   -0.5632   -9.2491    4.7146 H   0  0  0  0  0  0  0  0  0  0  0  0
    0.3834  -11.2374    6.2133 H   0  0  0  0  0  0  0  0  0  0  0  0
    0.8643   -9.5802    6.6288 H   0  0  0  0  0  0  0  0  0  0  0  0
    2.5288  -11.6676    5.2452 H   0  0  0  0  0  0  0  0  0  0  0  0
    3.0164  -10.4440    6.4065 H   0  0  0  0  0  0  0  0  0  0  0  0
    3.4086   -8.8993    4.8039 H   0  0  0  0  0  0  0  0  0  0  0  0
    5.0802  -11.8965    1.9337 H   0  0  0  0  0  0  0  0  0  0  0  0
    6.2648  -10.6461    1.5494 H   0  0  0  0  0  0  0  0  0  0  0  0
    4.6890  -10.6842    0.7024 H   0  0  0  0  0  0  0  0  0  0  0  0
    4.4900   -8.0651    3.5095 H   0  0  0  0  0  0  0  0  0  0  0  0
    6.9338   -8.6086    1.8316 H   0  0  0  0  0  0  0  0  0  0  0  0
    6.8949   -8.5578    3.5893 H   0  0  0  0  0  0  0  0  0  0  0  0
    5.0324   -5.9207    3.7337 H   0  0  0  0  0  0  0  0  0  0  0  0
    5.2281   -3.5952    3.0244 H   0  0  0  0  0  0  0  0  0  0  0  0
    7.0217   -2.9177    1.4399 H   0  0  0  0  0  0  0  0  0  0  0  0
    8.7509   -4.5598    0.7884 H   0  0  0  0  0  0  0  0  0  0  0  0
    8.5938   -6.9093    1.5177 H   0  0  0  0  0  0  0  0  0  0  0  0
    2.6103   -9.1355    1.2904 H   0  0  0  0  0  0  0  0  0  0  0  0
    1.8884   -8.2705   -0.7469 H   0  0  0  0  0  0  0  0  0  0  0  0
    3.2168   -7.1641   -0.7476 H   0  0  0  0  0  0  0  0  0  0  0  0
    0.9865   -6.7572    1.1184 H   0  0  0  0  0  0  0  0  0  0  0  0
    0.9491   -6.1061   -0.4605 H   0  0  0  0  0  0  0  0  0  0  0  0
    2.8702   -5.3257    1.7798 H   0  0  0  0  0  0  0  0  0  0  0  0
    1.6461   -4.3521    0.9827 H   0  0  0  0  0  0  0  0  0  0  0  0
    4.0664   -5.3344   -0.2441 H   0  0  0  0  0  0  0  0  0  0  0  0
    3.7850   -3.8116    0.2778 H   0  0  0  0  0  0  0  0  0  0  0  0
    2.9200   -4.3826   -1.0306 H   0  0  0  0  0  0  0  0  0  0  0  0
    0.6261   -7.0821   -7.9976 H   0  0  0  0  0  0  0  0  0  0  0  0
   -0.8397   -6.9182   -7.0028 H   0  0  0  0  0  0  0  0  0  0  0  0
   -0.9834   -8.6199   -9.0683 H   0  0  0  0  0  0  0  0  0  0  0  0
   -1.5082   -9.2159   -7.4796 H   0  0  0  0  0  0  0  0  0  0  0  0
    1.0413   -9.8593   -8.9381 H   0  0  0  0  0  0  0  0  0  0  0  0
    0.0884  -10.8659   -7.8568 H   0  0  0  0  0  0  0  0  0  0  0  0
    1.2605  -10.2221   -6.0529 H   0  0  0  0  0  0  0  0  0  0  0  0
    2.7995  -10.9479   -5.3380 H   0  0  0  0  0  0  0  0  0  0  0  0
    4.5134  -11.3047   -5.4304 H   0  0  0  0  0  0  0  0  0  0  0  0
    3.4044  -11.8993   -6.6881 H   0  0  0  0  0  0  0  0  0  0  0  0
    5.0233  -10.7027   -8.2394 H   0  0  0  0  0  0  0  0  0  0  0  0
    5.1342   -8.5796   -9.1400 H   0  0  0  0  0  0  0  0  0  0  0  0
    6.7431   -8.9086   -8.6147 H   0  0  0  0  0  0  0  0  0  0  0  0
    7.4526   -7.8631   -6.2025 H   0  0  0  0  0  0  0  0  0  0  0  0
    7.6352   -5.6580   -5.1573 H   0  0  0  0  0  0  0  0  0  0  0  0
    6.3696   -3.7571   -6.1150 H   0  0  0  0  0  0  0  0  0  0  0  0
    4.7570   -4.1566   -7.9586 H   0  0  0  0  0  0  0  0  0  0  0  0
    4.3857   -6.4201   -8.8223 H   0  0  0  0  0  0  0  0  0  0  0  0
    6.0438   -9.4118   -5.0627 H   0  0  0  0  0  0  0  0  0  0  0  0
    8.7159  -10.8370   -5.5355 H   0  0  0  0  0  0  0  0  0  0  0  0
    7.7745  -10.9846   -4.0846 H   0  0  0  0  0  0  0  0  0  0  0  0
    9.1059   -8.3886   -4.9105 H   0  0  0  0  0  0  0  0  0  0  0  0
    9.7279   -9.5391   -3.7278 H   0  0  0  0  0  0  0  0  0  0  0  0
    6.9205   -8.5599   -3.4594 H   0  0  0  0  0  0  0  0  0  0  0  0
    8.2710   -7.5423   -3.0563 H   0  0  0  0  0  0  0  0  0  0  0  0
    7.8646  -10.3135   -2.0211 H   0  0  0  0  0  0  0  0  0  0  0  0
    7.5090   -9.1361   -1.1422 H   0  0  0  0  0  0  0  0  0  0  0  0
    9.1118   -9.3412   -1.4636 H   0  0  0  0  0  0  0  0  0  0  0  0
  1  2  1  0  0  0  0
  1103  1  0  0  0  0
  1104  1  0  0  0  0
  1105  1  0  0  0  0
  2  3  1  0  0  0  0
  2106  1  0  0  0  0
  2107  1  0  0  0  0
  3  4  2  0  0  0  0
  3 16  1  0  0  0  0
  4  5  1  0  0  0  0
  4 17  1  0  0  0  0
  5  6  2  0  0  0  0
  5108  1  0  0  0  0
  6  7  1  0  0  0  0
  6 15  1  0  0  0  0
  7  8  2  0  0  0  0
  7109  1  0  0  0  0
  8  9  1  0  0  0  0
  8 13  1  0  0  0  0
  9 10  2  0  0  0  0
  9110  1  0  0  0  0
 10 11  1  0  0  0  0
 10111  1  0  0  0  0
 11 12  2  0  0  0  0
 11112  1  0  0  0  0
 12 13  1  0  0  0  0
 12113  1  0  0  0  0
 13 14  2  0  0  0  0
 14 15  1  0  0  0  0
 14114  1  0  0  0  0
 15 16  2  0  0  0  0
 17 18  2  0  0  0  0
 17 19  1  0  0  0  0
 19 20  1  0  0  0  0
 19 21  1  0  0  0  0
 20115  1  0  0  0  0
 20116  1  0  0  0  0
 20117  1  0  0  0  0
 21 22  1  0  0  0  0
 21 77  1  0  0  0  0
 21118  1  6  0  0  0
 22 23  1  0  0  0  0
 22119  1  0  0  0  0
 22120  1  0  0  0  0
 23 24  1  0  0  0  0
 23121  1  0  0  0  0
 23122  1  0  0  0  0
 24 25  1  0  0  0  0
 24 76  1  0  0  0  0
 25 26  2  0  0  0  0
 25123  1  0  0  0  0
 26 27  1  0  0  0  0
 26 75  1  0  0  0  0
 27124  1  0  0  0  0
 27125  1  0  0  0  0
 28 49  1  0  0  0  0
 28 29  1  0  0  0  0
 28 27  1  0  0  0  0
 28126  1  1  0  0  0
 29 30  1  0  0  0  0
 29 31  1  0  0  0  0
 30127  1  0  0  0  0
 30128  1  0  0  0  0
 30129  1  0  0  0  0
 31 32  2  0  0  0  0
 31 33  1  0  0  0  0
 33 34  2  0  0  0  0
 33 48  1  0  0  0  0
 34 35  1  0  0  0  0
 34 37  1  0  0  0  0
 35 36  1  0  0  0  0
 35130  1  0  0  0  0
 35131  1  0  0  0  0
 36132  1  0  0  0  0
 36133  1  0  0  0  0
 36134  1  0  0  0  0
 37 38  2  0  0  0  0
 38 39  1  0  0  0  0
 38 47  1  0  0  0  0
 39 40  2  0  0  0  0
 39135  1  0  0  0  0
 40 41  1  0  0  0  0
 40 45  1  0  0  0  0
 41 42  2  0  0  0  0
 41136  1  0  0  0  0
 42 43  1  0  0  0  0
 42137  1  0  0  0  0
 43 44  2  0  0  0  0
 43138  1  0  0  0  0
 44 45  1  0  0  0  0
 44139  1  0  0  0  0
 45 46  2  0  0  0  0
 46 47  1  0  0  0  0
 46140  1  0  0  0  0
 47 48  2  0  0  0  0
 48141  1  0  0  0  0
 49 50  2  0  0  0  0
 49 51  1  0  0  0  0
 51 52  1  0  0  0  0
 51 55  1  0  0  0  0
 52 53  1  0  0  0  0
 52142  1  0  0  0  0
 52143  1  0  0  0  0
 53 54  1  0  0  0  0
 53144  1  0  0  0  0
 53145  1  0  0  0  0
 54 55  1  0  0  0  0
 54146  1  0  0  0  0
 54147  1  0  0  0  0
 55 56  1  0  0  0  0
 55148  1  1  0  0  0
 56 57  2  0  0  0  0
 56 58  1  0  0  0  0
 58 59  1  0  0  0  0
 58 60  1  0  0  0  0
 59149  1  0  0  0  0
 59150  1  0  0  0  0
 59151  1  0  0  0  0
 60 61  1  0  0  0  0
 60 68  1  0  0  0  0
 60152  1  1  0  0  0
 61 62  1  0  0  0  0
 61153  1  0  0  0  0
 61154  1  0  0  0  0
 62 63  2  0  0  0  0
 62 67  1  0  0  0  0
 63 64  1  0  0  0  0
 63155  1  0  0  0  0
 64 65  2  0  0  0  0
 64156  1  0  0  0  0
 65 66  1  0  0  0  0
 65157  1  0  0  0  0
 66 67  2  0  0  0  0
 66158  1  0  0  0  0
 67159  1  0  0  0  0
 68 69  2  0  0  0  0
 68 70  1  0  0  0  0
 70 71  1  0  0  0  0
 70160  1  0  0  0  0
 71 72  1  0  0  0  0
 71161  1  0  0  0  0
 71162  1  0  0  0  0
 72 73  1  0  0  0  0
 72163  1  0  0  0  0
 72164  1  0  0  0  0
 73 74  1  0  0  0  0
 73165  1  0  0  0  0
 73166  1  0  0  0  0
 74167  1  0  0  0  0
 74168  1  0  0  0  0
 74169  1  0  0  0  0
 75 76  2  0  0  0  0
 77 78  2  0  0  0  0
 77 79  1  0  0  0  0
 79 80  1  0  0  0  0
 79 83  1  0  0  0  0
 80 81  1  0  0  0  0
 80170  1  0  0  0  0
 80171  1  0  0  0  0
 81 82  1  0  0  0  0
 81172  1  0  0  0  0
 81173  1  0  0  0  0
 82 83  1  0  0  0  0
 82174  1  0  0  0  0
 82175  1  0  0  0  0
 83 84  1  0  0  0  0
 83176  1  1  0  0  0
 84 85  2  0  0  0  0
 84 86  1  0  0  0  0
 86 87  1  0  0  0  0
 86 88  1  0  0  0  0
 87177  1  0  0  0  0
 87178  1  0  0  0  0
 87179  1  0  0  0  0
 88 89  1  0  0  0  0
 88 96  1  0  0  0  0
 88180  1  6  0  0  0
 89 90  1  0  0  0  0
 89181  1  0  0  0  0
 89182  1  0  0  0  0
 90 91  2  0  0  0  0
 90 95  1  0  0  0  0
 91 92  1  0  0  0  0
 91183  1  0  0  0  0
 92 93  2  0  0  0  0
 92184  1  0  0  0  0
 93 94  1  0  0  0  0
 93185  1  0  0  0  0
 94 95  2  0  0  0  0
 94186  1  0  0  0  0
 95187  1  0  0  0  0
 96 97  2  0  0  0  0
 96 98  1  0  0  0  0
 98 99  1  0  0  0  0
 98188  1  0  0  0  0
 99100  1  0  0  0  0
 99189  1  0  0  0  0
 99190  1  0  0  0  0
100101  1  0  0  0  0
100191  1  0  0  0  0
100192  1  0  0  0  0
101102  1  0  0  0  0
101193  1  0  0  0  0
101194  1  0  0  0  0
102195  1  0  0  0  0
102196  1  0  0  0  0
102197  1  0  0  0  0
M  CHG  2  74   1 102   1
M  END
$$$$
Target_lig_1256
 OpenBabel04172516573D

 55 56  0  0  0  0  0  0  0  0999 V2000
    2.5258   -1.1785   -3.4765 C   0  0  0  0  0  0  0  0  0  0  0  0
    2.6680    0.3181   -3.3140 N   0  3  0  0  0  0  0  0  0  0  0  0
    1.3659    0.9162   -2.8392 C   0  0  0  0  0  0  0  0  0  0  0  0
    3.8633    0.6437   -2.4439 C   0  0  0  0  0  0  0  0  0  0  0  0
    4.0841    2.1497   -2.2977 C   0  0  0  0  0  0  0  0  0  0  0  0
    5.3472    2.4250   -1.4788 C   0  0  0  0  0  0  0  0  0  0  0  0
    6.4974    1.8983   -2.1495 O   0  0  0  0  0  0  0  0  0  0  0  0
    7.2088    2.7076   -2.9996 C   0  0  0  0  0  0  0  0  0  0  0  0
    6.8509    4.0278   -3.3429 C   0  0  0  0  0  0  0  0  0  0  0  0
    7.6366    4.8000   -4.2071 C   0  0  0  0  0  0  0  0  0  0  0  0
    8.7707    4.1827   -4.7073 C   0  0  0  0  0  0  0  0  0  0  0  0
    9.7339    4.6510   -5.5581 N   0  3  0  0  0  0  0  0  0  0  0  0
   10.6182    3.7175   -5.8175 C   0  0  0  0  0  0  0  0  0  0  0  0
   11.6409    3.9094   -6.6436 N   0  0  0  0  0  0  0  0  0  0  0  0
   10.3308    2.6193   -5.1209 N   0  0  0  0  0  0  0  0  0  0  0  0
   11.1054    1.3697   -5.1204 C   0  0  0  0  0  0  0  0  0  0  0  0
   12.4903    1.5822   -4.4988 C   0  0  0  0  0  0  0  0  0  0  0  0
   13.3750    0.3342   -4.5222 C   0  0  0  0  0  0  0  0  0  0  0  0
   14.7746    0.6610   -4.0147 N   0  3  0  0  0  0  0  0  0  0  0  0
   14.8149    1.1743   -2.5932 C   0  0  0  0  0  0  0  0  0  0  0  0
   15.7139   -0.5203   -4.1636 C   0  0  0  0  0  0  0  0  0  0  0  0
    9.1390    2.8680   -4.3989 C   0  0  0  0  0  0  0  0  0  0  0  0
    8.3649    2.0943   -3.5333 C   0  0  0  0  0  0  0  0  0  0  0  0
    1.6972   -1.3712   -4.1626 H   0  0  0  0  0  0  0  0  0  0  0  0
    2.3357   -1.6164   -2.4927 H   0  0  0  0  0  0  0  0  0  0  0  0
    3.4577   -1.5609   -3.9015 H   0  0  0  0  0  0  0  0  0  0  0  0
    2.8393    0.6965   -4.2544 H   0  0  0  0  0  0  0  0  0  0  0  0
    1.1957    0.6032   -1.8062 H   0  0  0  0  0  0  0  0  0  0  0  0
    0.5691    0.5615   -3.4981 H   0  0  0  0  0  0  0  0  0  0  0  0
    1.4381    2.0025   -2.9226 H   0  0  0  0  0  0  0  0  0  0  0  0
    4.7265    0.1772   -2.9325 H   0  0  0  0  0  0  0  0  0  0  0  0
    3.7022    0.1677   -1.4710 H   0  0  0  0  0  0  0  0  0  0  0  0
    3.2375    2.6154   -1.7847 H   0  0  0  0  0  0  0  0  0  0  0  0
    4.1679    2.6002   -3.2895 H   0  0  0  0  0  0  0  0  0  0  0  0
    5.2738    1.9024   -0.5174 H   0  0  0  0  0  0  0  0  0  0  0  0
    5.4500    3.4848   -1.2215 H   0  0  0  0  0  0  0  0  0  0  0  0
    5.9546    4.5041   -2.9529 H   0  0  0  0  0  0  0  0  0  0  0  0
    7.3774    5.8186   -4.4728 H   0  0  0  0  0  0  0  0  0  0  0  0
    9.7271    5.5815   -5.9557 H   0  0  0  0  0  0  0  0  0  0  0  0
   11.7751    4.8182   -7.0740 H   0  0  0  0  0  0  0  0  0  0  0  0
   12.2599    3.1710   -6.9320 H   0  0  0  0  0  0  0  0  0  0  0  0
   11.1826    1.0249   -6.1578 H   0  0  0  0  0  0  0  0  0  0  0  0
   10.5600    0.6013   -4.5615 H   0  0  0  0  0  0  0  0  0  0  0  0
   12.3392    1.9244   -3.4673 H   0  0  0  0  0  0  0  0  0  0  0  0
   13.0123    2.3898   -5.0216 H   0  0  0  0  0  0  0  0  0  0  0  0
   13.4949   -0.0295   -5.5486 H   0  0  0  0  0  0  0  0  0  0  0  0
   12.9716   -0.4699   -3.8978 H   0  0  0  0  0  0  0  0  0  0  0  0
   15.1833    1.3976   -4.6030 H   0  0  0  0  0  0  0  0  0  0  0  0
   14.3168    0.4473   -1.9474 H   0  0  0  0  0  0  0  0  0  0  0  0
   14.3093    2.1422   -2.5666 H   0  0  0  0  0  0  0  0  0  0  0  0
   15.8603    1.3140   -2.3080 H   0  0  0  0  0  0  0  0  0  0  0  0
   15.3385   -1.3411   -3.5480 H   0  0  0  0  0  0  0  0  0  0  0  0
   16.7075   -0.2013   -3.8363 H   0  0  0  0  0  0  0  0  0  0  0  0
   15.7426   -0.7946   -5.2210 H   0  0  0  0  0  0  0  0  0  0  0  0
    8.6323    1.0780   -3.2757 H   0  0  0  0  0  0  0  0  0  0  0  0
  1  2  1  0  0  0  0
  1 24  1  0  0  0  0
  1 25  1  0  0  0  0
  1 26  1  0  0  0  0
  2  3  1  0  0  0  0
  2  4  1  0  0  0  0
  2 27  1  0  0  0  0
  3 28  1  0  0  0  0
  3 29  1  0  0  0  0
  3 30  1  0  0  0  0
  4  5  1  0  0  0  0
  4 31  1  0  0  0  0
  4 32  1  0  0  0  0
  5  6  1  0  0  0  0
  5 33  1  0  0  0  0
  5 34  1  0  0  0  0
  6  7  1  0  0  0  0
  6 35  1  0  0  0  0
  6 36  1  0  0  0  0
  7  8  1  0  0  0  0
  8  9  2  0  0  0  0
  8 23  1  0  0  0  0
  9 10  1  0  0  0  0
  9 37  1  0  0  0  0
 10 11  2  0  0  0  0
 10 38  1  0  0  0  0
 11 12  1  0  0  0  0
 11 22  1  0  0  0  0
 12 13  2  0  0  0  0
 12 39  1  0  0  0  0
 13 14  1  0  0  0  0
 13 15  1  0  0  0  0
 14 40  1  0  0  0  0
 14 41  1  0  0  0  0
 15 16  1  0  0  0  0
 15 22  1  0  0  0  0
 16 17  1  0  0  0  0
 16 42  1  0  0  0  0
 16 43  1  0  0  0  0
 17 18  1  0  0  0  0
 17 44  1  0  0  0  0
 17 45  1  0  0  0  0
 18 19  1  0  0  0  0
 18 46  1  0  0  0  0
 18 47  1  0  0  0  0
 19 20  1  0  0  0  0
 19 21  1  0  0  0  0
 19 48  1  0  0  0  0
 20 49  1  0  0  0  0
 20 50  1  0  0  0  0
 20 51  1  0  0  0  0
 21 52  1  0  0  0  0
 21 53  1  0  0  0  0
 21 54  1  0  0  0  0
 22 23  2  0  0  0  0
 23 55  1  0  0  0  0
M  CHG  3   2   1  12   1  19   1
M  END
$$$$
Target_lig_689
 OpenBabel04172516573D

 55 57  0  0  1  0  0  0  0  0999 V2000
    2.1684    3.0244   -1.8018 C   0  0  0  0  0  0  0  0  0  0  0  0
    3.1787    2.0560   -1.2367 N   0  3  0  0  0  0  0  0  0  0  0  0
    2.5851    1.2775   -0.0922 C   0  0  0  0  0  0  0  0  0  0  0  0
    3.7593    1.1980   -2.3347 C   0  0  0  0  0  0  0  0  0  0  0  0
    4.8219    0.2524   -1.8020 C   0  0  0  0  0  0  0  0  0  0  0  0
    5.3926   -0.5696   -2.9438 C   0  0  0  0  0  0  0  0  0  0  0  0
    6.3635   -1.4560   -2.4006 O   0  0  0  0  0  0  0  0  0  0  0  0
    6.9639   -2.2879   -3.3112 C   0  0  0  0  0  0  0  0  0  0  0  0
    6.6777   -2.3154   -4.6833 C   0  0  0  0  0  0  0  0  0  0  0  0
    7.3506   -3.1872   -5.5453 C   0  0  0  0  0  0  0  0  0  0  0  0
    8.3216   -4.0376   -5.0113 C   0  0  0  0  0  0  0  0  0  0  0  0
    9.1225   -4.9488   -5.6497 N   0  0  0  0  0  0  0  0  0  0  0  0
    9.8727   -5.4570   -4.7192 C   0  0  0  0  0  0  0  0  0  0  0  0
   10.8527   -6.3730   -4.8378 N   0  0  0  0  0  0  0  0  0  0  0  0
   11.8362   -6.4715   -3.7766 C   0  0  0  0  0  0  0  0  0  0  0  0
   11.0618   -6.5999   -2.4471 C   0  0  3  0  0  0  0  0  0  0  0  0
   11.9921   -6.8771   -1.2698 C   0  0  0  0  0  0  0  0  0  0  0  0
   11.2395   -7.0947    0.0416 N   0  3  0  0  0  0  0  0  0  0  0  0
   10.2595   -8.2474    0.0115 C   0  0  0  0  0  0  0  0  0  0  0  0
   12.2046   -7.2552    1.1956 C   0  0  0  0  0  0  0  0  0  0  0  0
   10.2430   -5.3137   -2.2663 C   0  0  0  0  0  0  0  0  0  0  0  0
    9.5616   -4.9414   -3.4845 N   0  0  0  0  0  0  0  0  0  0  0  0
    8.5822   -4.0025   -3.6425 C   0  0  0  0  0  0  0  0  0  0  0  0
    7.9262   -3.1413   -2.7600 C   0  0  0  0  0  0  0  0  0  0  0  0
    1.8256    3.6691   -0.9894 H   0  0  0  0  0  0  0  0  0  0  0  0
    1.3398    2.4494   -2.2252 H   0  0  0  0  0  0  0  0  0  0  0  0
    2.6642    3.6217   -2.5714 H   0  0  0  0  0  0  0  0  0  0  0  0
    3.9440    2.6255   -0.8495 H   0  0  0  0  0  0  0  0  0  0  0  0
    1.8232    0.6016   -0.4889 H   0  0  0  0  0  0  0  0  0  0  0  0
    2.1557    1.9884    0.6173 H   0  0  0  0  0  0  0  0  0  0  0  0
    3.3855    0.7259    0.4059 H   0  0  0  0  0  0  0  0  0  0  0  0
    4.1990    1.8840   -3.0694 H   0  0  0  0  0  0  0  0  0  0  0  0
    2.9330    0.6539   -2.8051 H   0  0  0  0  0  0  0  0  0  0  0  0
    4.4096   -0.4429   -1.0627 H   0  0  0  0  0  0  0  0  0  0  0  0
    5.6246    0.8028   -1.2967 H   0  0  0  0  0  0  0  0  0  0  0  0
    5.8576    0.0990   -3.6781 H   0  0  0  0  0  0  0  0  0  0  0  0
    4.5800   -1.1433   -3.4073 H   0  0  0  0  0  0  0  0  0  0  0  0
    5.9377   -1.6655   -5.1351 H   0  0  0  0  0  0  0  0  0  0  0  0
    7.1361   -3.2024   -6.6089 H   0  0  0  0  0  0  0  0  0  0  0  0
   11.1723   -6.5393   -5.7928 H   0  0  0  0  0  0  0  0  0  0  0  0
   12.4788   -5.5810   -3.7787 H   0  0  0  0  0  0  0  0  0  0  0  0
   12.4750   -7.3427   -3.9517 H   0  0  0  0  0  0  0  0  0  0  0  0
   10.3690   -7.4448   -2.5616 H   0  0  0  0  0  0  0  0  0  0  0  0
   12.6666   -6.0294   -1.1029 H   0  0  0  0  0  0  0  0  0  0  0  0
   12.5927   -7.7773   -1.4427 H   0  0  0  0  0  0  0  0  0  0  0  0
   10.6973   -6.2513    0.2661 H   0  0  0  0  0  0  0  0  0  0  0  0
   10.7416   -9.1080   -0.4573 H   0  0  0  0  0  0  0  0  0  0  0  0
    9.3787   -7.9245   -0.5490 H   0  0  0  0  0  0  0  0  0  0  0  0
    9.9619   -8.4780    1.0386 H   0  0  0  0  0  0  0  0  0  0  0  0
   12.8186   -8.1407    1.0149 H   0  0  0  0  0  0  0  0  0  0  0  0
   11.6200   -7.3590    2.1141 H   0  0  0  0  0  0  0  0  0  0  0  0
   12.8138   -6.3495    1.2496 H   0  0  0  0  0  0  0  0  0  0  0  0
   10.8867   -4.4680   -1.9970 H   0  0  0  0  0  0  0  0  0  0  0  0
    9.4829   -5.4412   -1.4888 H   0  0  0  0  0  0  0  0  0  0  0  0
    8.1535   -3.1159   -1.6998 H   0  0  0  0  0  0  0  0  0  0  0  0
  1  2  1  0  0  0  0
  1 25  1  0  0  0  0
  1 26  1  0  0  0  0
  1 27  1  0  0  0  0
  2  3  1  0  0  0  0
  2  4  1  0  0  0  0
  2 28  1  0  0  0  0
  3 29  1  0  0  0  0
  3 30  1  0  0  0  0
  3 31  1  0  0  0  0
  4  5  1  0  0  0  0
  4 32  1  0  0  0  0
  4 33  1  0  0  0  0
  5  6  1  0  0  0  0
  5 34  1  0  0  0  0
  5 35  1  0  0  0  0
  6  7  1  0  0  0  0
  6 36  1  0  0  0  0
  6 37  1  0  0  0  0
  7  8  1  0  0  0  0
  8  9  2  0  0  0  0
  8 24  1  0  0  0  0
  9 10  1  0  0  0  0
  9 38  1  0  0  0  0
 10 11  2  0  0  0  0
 10 39  1  0  0  0  0
 11 12  1  0  0  0  0
 11 23  1  0  0  0  0
 12 13  2  0  0  0  0
 13 14  1  0  0  0  0
 13 22  1  0  0  0  0
 14 15  1  0  0  0  0
 14 40  1  0  0  0  0
 15 16  1  0  0  0  0
 15 41  1  0  0  0  0
 15 42  1  0  0  0  0
 16 17  1  0  0  0  0
 16 21  1  0  0  0  0
 16 43  1  0  0  0  0
 17 18  1  0  0  0  0
 17 44  1  0  0  0  0
 17 45  1  0  0  0  0
 18 19  1  0  0  0  0
 18 20  1  0  0  0  0
 18 46  1  0  0  0  0
 19 47  1  0  0  0  0
 19 48  1  0  0  0  0
 19 49  1  0  0  0  0
 20 50  1  0  0  0  0
 20 51  1  0  0  0  0
 20 52  1  0  0  0  0
 21 22  1  0  0  0  0
 21 53  1  0  0  0  0
 21 54  1  0  0  0  0
 22 23  1  0  0  0  0
 23 24  2  0  0  0  0
 24 55  1  0  0  0  0
M  CHG  2   2   1  18   1
M  END
$$$$
Target_lig_690
 OpenBabel04172516573D

 56 58  0  0  1  0  0  0  0  0999 V2000
    0.8585    3.6926   -4.1552 C   0  0  0  0  0  0  0  0  0  0  0  0
    2.3752    3.6457   -4.1708 N   0  3  0  0  0  0  0  0  0  0  0  0
    2.9298    4.9844   -3.7443 C   0  0  0  0  0  0  0  0  0  0  0  0
    2.8810    2.4551   -3.3866 C   0  0  0  0  0  0  0  0  0  0  0  0
    4.4021    2.3803   -3.3990 C   0  0  0  0  0  0  0  0  0  0  0  0
    4.9261    1.1883   -2.5963 C   0  0  0  0  0  0  0  0  0  0  0  0
    6.3813    1.1533   -2.6133 N   0  0  0  0  0  0  0  0  0  0  0  0
    7.2066    2.0911   -2.1191 C   0  0  0  0  0  0  0  0  0  0  0  0
    6.8523    3.2470   -1.5600 N   0  0  0  0  0  0  0  0  0  0  0  0
    8.4557    1.7210   -2.2988 N   0  3  0  0  0  0  0  0  0  0  0  0
    8.5376    0.4924   -2.9228 C   0  0  0  0  0  0  0  0  0  0  0  0
    9.6339   -0.2605   -3.2821 C   0  0  0  0  0  0  0  0  0  0  0  0
    9.3451   -1.4766   -3.8706 C   0  0  0  0  0  0  0  0  0  0  0  0
    8.0016   -1.8016   -4.0287 C   0  0  0  0  0  0  0  0  0  0  0  0
    7.6654   -3.0316   -4.5762 O   0  0  0  0  0  0  0  0  0  0  0  0
    6.2149   -3.0710   -4.6675 C   0  0  3  0  0  0  0  0  0  0  0  0
    5.6953   -4.3191   -3.9423 C   0  0  0  0  0  0  0  0  0  0  0  0
    6.2433   -5.6149   -4.5429 C   0  0  0  0  0  0  0  0  0  0  0  0
    5.7143   -6.8315   -3.7985 N   0  3  0  0  0  0  0  0  0  0  0  0
    4.2134   -6.9794   -3.8095 C   0  0  0  0  0  0  0  0  0  0  0  0
    6.3561   -8.1016   -4.3160 C   0  0  0  0  0  0  0  0  0  0  0  0
    5.6345   -1.7739   -4.0563 C   0  0  0  0  0  0  0  0  0  0  0  0
    6.8584   -1.0599   -3.7004 C   0  0  0  0  0  0  0  0  0  0  0  0
    7.2157    0.1761   -3.0942 C   0  0  0  0  0  0  0  0  0  0  0  0
    0.5386    4.5245   -4.7869 H   0  0  0  0  0  0  0  0  0  0  0  0
    0.5323    3.8322   -3.1208 H   0  0  0  0  0  0  0  0  0  0  0  0
    0.4905    2.7476   -4.5611 H   0  0  0  0  0  0  0  0  0  0  0  0
    2.6322    3.5243   -5.1629 H   0  0  0  0  0  0  0  0  0  0  0  0
    2.7161    5.1231   -2.6816 H   0  0  0  0  0  0  0  0  0  0  0  0
    2.4604    5.7622   -4.3520 H   0  0  0  0  0  0  0  0  0  0  0  0
    4.0052    4.9899   -3.9348 H   0  0  0  0  0  0  0  0  0  0  0  0
    2.4623    1.5612   -3.8598 H   0  0  0  0  0  0  0  0  0  0  0  0
    2.4940    2.5437   -2.3647 H   0  0  0  0  0  0  0  0  0  0  0  0
    4.8086    3.2941   -2.9718 H   0  0  0  0  0  0  0  0  0  0  0  0
    4.7827    2.3297   -4.4248 H   0  0  0  0  0  0  0  0  0  0  0  0
    4.5226    0.2659   -3.0116 H   0  0  0  0  0  0  0  0  0  0  0  0
    4.5956    1.2344   -1.5526 H   0  0  0  0  0  0  0  0  0  0  0  0
    5.9075    3.5353   -1.4194 H   0  0  0  0  0  0  0  0  0  0  0  0
    7.5741    3.8794   -1.2140 H   0  0  0  0  0  0  0  0  0  0  0  0
    9.2678    2.2574   -2.0116 H   0  0  0  0  0  0  0  0  0  0  0  0
   10.6491    0.0762   -3.1095 H   0  0  0  0  0  0  0  0  0  0  0  0
   10.1258   -2.1568   -4.1980 H   0  0  0  0  0  0  0  0  0  0  0  0
    5.9526   -3.1254   -5.7319 H   0  0  0  0  0  0  0  0  0  0  0  0
    4.6021   -4.3040   -3.9988 H   0  0  0  0  0  0  0  0  0  0  0  0
    5.9777   -4.2735   -2.8831 H   0  0  0  0  0  0  0  0  0  0  0  0
    7.3354   -5.6500   -4.4567 H   0  0  0  0  0  0  0  0  0  0  0  0
    5.9575   -5.7247   -5.5948 H   0  0  0  0  0  0  0  0  0  0  0  0
    6.0078   -6.7561   -2.8158 H   0  0  0  0  0  0  0  0  0  0  0  0
    3.8759   -7.0183   -4.8481 H   0  0  0  0  0  0  0  0  0  0  0  0
    3.7756   -6.1297   -3.2820 H   0  0  0  0  0  0  0  0  0  0  0  0
    3.9553   -7.8964   -3.2739 H   0  0  0  0  0  0  0  0  0  0  0  0
    6.0669   -8.2315   -5.3623 H   0  0  0  0  0  0  0  0  0  0  0  0
    5.9986   -8.9335   -3.7031 H   0  0  0  0  0  0  0  0  0  0  0  0
    7.4392   -8.0004   -4.2129 H   0  0  0  0  0  0  0  0  0  0  0  0
    5.0187   -1.9645   -3.1709 H   0  0  0  0  0  0  0  0  0  0  0  0
    5.0499   -1.2171   -4.7957 H   0  0  0  0  0  0  0  0  0  0  0  0
  1  2  1  0  0  0  0
  1 25  1  0  0  0  0
  1 26  1  0  0  0  0
  1 27  1  0  0  0  0
  2  3  1  0  0  0  0
  2  4  1  0  0  0  0
  2 28  1  0  0  0  0
  3 29  1  0  0  0  0
  3 30  1  0  0  0  0
  3 31  1  0  0  0  0
  4  5  1  0  0  0  0
  4 32  1  0  0  0  0
  4 33  1  0  0  0  0
  5  6  1  0  0  0  0
  5 34  1  0  0  0  0
  5 35  1  0  0  0  0
  6  7  1  0  0  0  0
  6 36  1  0  0  0  0
  6 37  1  0  0  0  0
  7  8  1  0  0  0  0
  7 24  1  0  0  0  0
  8  9  1  0  0  0  0
  8 10  2  0  0  0  0
  9 38  1  0  0  0  0
  9 39  1  0  0  0  0
 10 11  1  0  0  0  0
 10 40  1  0  0  0  0
 11 12  2  0  0  0  0
 11 24  1  0  0  0  0
 12 13  1  0  0  0  0
 12 41  1  0  0  0  0
 13 14  2  0  0  0  0
 13 42  1  0  0  0  0
 14 15  1  0  0  0  0
 14 23  1  0  0  0  0
 15 16  1  0  0  0  0
 16 17  1  0  0  0  0
 16 22  1  0  0  0  0
 16 43  1  0  0  0  0
 17 18  1  0  0  0  0
 17 44  1  0  0  0  0
 17 45  1  0  0  0  0
 18 19  1  0  0  0  0
 18 46  1  0  0  0  0
 18 47  1  0  0  0  0
 19 20  1  0  0  0  0
 19 21  1  0  0  0  0
 19 48  1  0  0  0  0
 20 49  1  0  0  0  0
 20 50  1  0  0  0  0
 20 51  1  0  0  0  0
 21 52  1  0  0  0  0
 21 53  1  0  0  0  0
 21 54  1  0  0  0  0
 22 23  1  0  0  0  0
 22 55  1  0  0  0  0
 22 56  1  0  0  0  0
 23 24  2  0  0  0  0
M  CHG  3   2   1  10   1  19   1
M  END
$$$$
Target_lig_691
 OpenBabel04172516573D

 56 58  0  0  1  0  0  0  0  0999 V2000
    0.8724   -0.3964   -1.4405 C   0  0  0  0  0  0  0  0  0  0  0  0
    2.3903   -0.4229   -1.5060 N   0  3  0  0  0  0  0  0  0  0  0  0
    2.8261   -1.2577   -2.6877 C   0  0  0  0  0  0  0  0  0  0  0  0
    2.9611    0.9825   -1.4645 C   0  0  0  0  0  0  0  0  0  0  0  0
    4.4919    0.9834   -1.4758 C   0  0  0  0  0  0  0  0  0  0  0  0
    5.0643    2.4070   -1.4955 C   0  0  0  0  0  0  0  0  0  0  0  0
    6.5270    2.4067   -1.4748 N   0  0  0  0  0  0  0  0  0  0  0  0
    7.3391    1.9426   -2.4288 C   0  0  0  0  0  0  0  0  0  0  0  0
    6.9802    1.4743   -3.6191 N   0  0  0  0  0  0  0  0  0  0  0  0
    8.5950    1.9899   -2.0186 N   0  3  0  0  0  0  0  0  0  0  0  0
    8.6948    2.6194   -0.7946 C   0  0  0  0  0  0  0  0  0  0  0  0
    9.7939    2.9318   -0.0217 C   0  0  0  0  0  0  0  0  0  0  0  0
    9.5149    3.5829    1.1623 C   0  0  0  0  0  0  0  0  0  0  0  0
    8.1801    3.8831    1.4222 C   0  0  0  0  0  0  0  0  0  0  0  0
    7.8444    4.5544    2.5872 O   0  0  0  0  0  0  0  0  0  0  0  0
    6.4046    4.7735    2.5497 C   0  0  0  0  0  0  0  0  0  0  0  0
    5.7743    4.1001    3.7708 C   0  0  3  0  0  0  0  0  0  0  0  0
    6.3478    4.6465    5.0711 C   0  0  0  0  0  0  0  0  0  0  0  0
    5.7032    3.9709    6.2654 N   0  3  0  0  0  0  0  0  0  0  0  0
    5.9476    2.4851    6.3354 C   0  0  0  0  0  0  0  0  0  0  0  0
    6.1463    4.6393    7.5470 C   0  0  0  0  0  0  0  0  0  0  0  0
    5.8321    4.1707    1.2525 C   0  0  0  0  0  0  0  0  0  0  0  0
    7.0417    3.6156    0.6503 C   0  0  0  0  0  0  0  0  0  0  0  0
    7.3790    2.8859   -0.5114 C   0  0  0  0  0  0  0  0  0  0  0  0
    0.5168   -1.4295   -1.4101 H   0  0  0  0  0  0  0  0  0  0  0  0
    0.5003    0.1235   -2.3277 H   0  0  0  0  0  0  0  0  0  0  0  0
    0.5844    0.1261   -0.5253 H   0  0  0  0  0  0  0  0  0  0  0  0
    2.6898   -0.9325   -0.6619 H   0  0  0  0  0  0  0  0  0  0  0  0
    2.5844   -0.7123   -3.6033 H   0  0  0  0  0  0  0  0  0  0  0  0
    2.3047   -2.2167   -2.6440 H   0  0  0  0  0  0  0  0  0  0  0  0
    3.9002   -1.4361   -2.6030 H   0  0  0  0  0  0  0  0  0  0  0  0
    2.5922    1.4403   -0.5384 H   0  0  0  0  0  0  0  0  0  0  0  0
    2.5532    1.5280   -2.3218 H   0  0  0  0  0  0  0  0  0  0  0  0
    4.8618    0.4564   -2.3608 H   0  0  0  0  0  0  0  0  0  0  0  0
    4.8744    0.4411   -0.6031 H   0  0  0  0  0  0  0  0  0  0  0  0
    4.6695    2.9556   -0.6418 H   0  0  0  0  0  0  0  0  0  0  0  0
    4.7430    2.9465   -2.3927 H   0  0  0  0  0  0  0  0  0  0  0  0
    6.0405    1.5521   -3.9729 H   0  0  0  0  0  0  0  0  0  0  0  0
    7.6897    1.1450   -4.2668 H   0  0  0  0  0  0  0  0  0  0  0  0
    9.3970    1.6754   -2.5546 H   0  0  0  0  0  0  0  0  0  0  0  0
   10.8047    2.6814   -0.3274 H   0  0  0  0  0  0  0  0  0  0  0  0
   10.2959    3.8770    1.8580 H   0  0  0  0  0  0  0  0  0  0  0  0
    6.2307    5.8559    2.5793 H   0  0  0  0  0  0  0  0  0  0  0  0
    5.9722    3.0238    3.7053 H   0  0  0  0  0  0  0  0  0  0  0  0
    4.6863    4.2388    3.7481 H   0  0  0  0  0  0  0  0  0  0  0  0
    6.1281    5.7169    5.1540 H   0  0  0  0  0  0  0  0  0  0  0  0
    7.4282    4.4889    5.1500 H   0  0  0  0  0  0  0  0  0  0  0  0
    4.6858    4.1174    6.2168 H   0  0  0  0  0  0  0  0  0  0  0  0
    7.0184    2.3006    6.2162 H   0  0  0  0  0  0  0  0  0  0  0  0
    5.3751    2.0072    5.5361 H   0  0  0  0  0  0  0  0  0  0  0  0
    5.5865    2.1167    7.2983 H   0  0  0  0  0  0  0  0  0  0  0  0
    7.2213    4.4798    7.6627 H   0  0  0  0  0  0  0  0  0  0  0  0
    5.5854    4.1903    8.3701 H   0  0  0  0  0  0  0  0  0  0  0  0
    5.9089    5.7033    7.4705 H   0  0  0  0  0  0  0  0  0  0  0  0
    5.3985    4.9442    0.6130 H   0  0  0  0  0  0  0  0  0  0  0  0
    5.0903    3.3916    1.4470 H   0  0  0  0  0  0  0  0  0  0  0  0
  1  2  1  0  0  0  0
  1 25  1  0  0  0  0
  1 26  1  0  0  0  0
  1 27  1  0  0  0  0
  2  3  1  0  0  0  0
  2  4  1  0  0  0  0
  2 28  1  0  0  0  0
  3 29  1  0  0  0  0
  3 30  1  0  0  0  0
  3 31  1  0  0  0  0
  4  5  1  0  0  0  0
  4 32  1  0  0  0  0
  4 33  1  0  0  0  0
  5  6  1  0  0  0  0
  5 34  1  0  0  0  0
  5 35  1  0  0  0  0
  6  7  1  0  0  0  0
  6 36  1  0  0  0  0
  6 37  1  0  0  0  0
  7  8  1  0  0  0  0
  7 24  1  0  0  0  0
  8  9  1  0  0  0  0
  8 10  2  0  0  0  0
  9 38  1  0  0  0  0
  9 39  1  0  0  0  0
 10 11  1  0  0  0  0
 10 40  1  0  0  0  0
 11 12  2  0  0  0  0
 11 24  1  0  0  0  0
 12 13  1  0  0  0  0
 12 41  1  0  0  0  0
 13 14  2  0  0  0  0
 13 42  1  0  0  0  0
 14 15  1  0  0  0  0
 14 23  1  0  0  0  0
 15 16  1  0  0  0  0
 16 17  1  0  0  0  0
 16 43  1  0  0  0  0
 16 44  1  0  0  0  0
 17 18  1  0  0  0  0
 17 22  1  0  0  0  0
 17 45  1  0  0  0  0
 18 19  1  0  0  0  0
 18 46  1  0  0  0  0
 18 47  1  0  0  0  0
 19 20  1  0  0  0  0
 19 21  1  0  0  0  0
 19 48  1  0  0  0  0
 20 49  1  0  0  0  0
 20 50  1  0  0  0  0
 20 51  1  0  0  0  0
 21 52  1  0  0  0  0
 21 53  1  0  0  0  0
 21 54  1  0  0  0  0
 22 23  1  0  0  0  0
 22 55  1  0  0  0  0
 22 56  1  0  0  0  0
 23 24  2  0  0  0  0
M  CHG  3   2   1  10   1  19   1
M  END
$$$$
Target_lig_1257
 OpenBabel04172516573D

 57 60  0  0  1  0  0  0  0  0999 V2000
    2.7935   -0.0724   -1.2929 C   0  0  0  0  0  0  0  0  0  0  0  0
    2.3568    0.8845   -0.2064 N   0  3  0  0  0  0  0  0  0  0  0  0
    0.8376    0.9995   -0.2130 C   0  0  0  0  0  0  0  0  0  0  0  0
    2.8635    0.5232    1.1812 C   0  0  0  0  0  0  0  0  0  0  0  0
    4.3977    0.5918    1.3324 C   0  0  3  0  0  0  0  0  0  0  0  0
    4.8175    0.1577    2.7450 C   0  0  0  0  0  0  0  0  0  0  0  0
    4.4633    1.1512    3.7586 N   0  0  0  0  0  0  0  0  0  0  0  0
    4.4386    2.4480    3.4310 C   0  0  0  0  0  0  0  0  0  0  0  0
    4.1894    3.4560    4.2324 N   0  3  0  0  0  0  0  0  0  0  0  0
    4.3916    4.6411    3.5621 C   0  0  0  0  0  0  0  0  0  0  0  0
    4.3608    5.9440    4.0338 C   0  0  0  0  0  0  0  0  0  0  0  0
    4.7605    6.9229    3.1216 C   0  0  0  0  0  0  0  0  0  0  0  0
    5.1303    6.5923    1.8047 C   0  0  0  0  0  0  0  0  0  0  0  0
    5.5956    7.6421    1.0501 O   0  0  0  0  0  0  0  0  0  0  0  0
    6.3557    7.2408   -0.0951 C   0  0  0  0  0  0  0  0  0  0  0  0
    5.4811    6.3441   -0.9632 C   0  0  3  0  0  0  0  0  0  0  0  0
    6.0215    6.0939   -2.3775 C   0  0  0  0  0  0  0  0  0  0  0  0
    6.2170    7.3472   -3.2076 N   0  3  0  0  0  0  0  0  0  0  0  0
    6.7750    7.0097   -4.5809 C   0  0  0  0  0  0  0  0  0  0  0  0
    4.9948    8.2250   -3.3465 C   0  0  0  0  0  0  0  0  0  0  0  0
    5.2896    5.0224   -0.1773 C   0  0  0  0  0  0  0  0  0  0  0  0
    5.0318    5.2820    1.2817 C   0  0  0  0  0  0  0  0  0  0  0  0
    4.7068    4.2992    2.2320 C   0  0  0  0  0  0  0  0  0  0  0  0
    4.6426    2.8918    2.1891 N   0  0  0  0  0  0  0  0  0  0  0  0
    4.9805    1.9879    1.1059 C   0  0  0  0  0  0  0  0  0  0  0  0
    2.3900    0.2899   -2.2420 H   0  0  0  0  0  0  0  0  0  0  0  0
    2.4180   -1.0692   -1.0519 H   0  0  0  0  0  0  0  0  0  0  0  0
    3.8842   -0.0575   -1.3405 H   0  0  0  0  0  0  0  0  0  0  0  0
    2.6721    1.8235   -0.4688 H   0  0  0  0  0  0  0  0  0  0  0  0
    0.4145    0.0329    0.0679 H   0  0  0  0  0  0  0  0  0  0  0  0
    0.5301    1.2951   -1.2199 H   0  0  0  0  0  0  0  0  0  0  0  0
    0.5619    1.7812    0.5002 H   0  0  0  0  0  0  0  0  0  0  0  0
    2.4971   -0.4876    1.3958 H   0  0  0  0  0  0  0  0  0  0  0  0
    2.3774    1.2184    1.8749 H   0  0  0  0  0  0  0  0  0  0  0  0
    4.8546   -0.1054    0.6209 H   0  0  0  0  0  0  0  0  0  0  0  0
    5.9056    0.0251    2.7888 H   0  0  0  0  0  0  0  0  0  0  0  0
    4.3596   -0.7972    3.0219 H   0  0  0  0  0  0  0  0  0  0  0  0
    4.3648    0.9054    4.7409 H   0  0  0  0  0  0  0  0  0  0  0  0
    3.9765    3.3920    5.2193 H   0  0  0  0  0  0  0  0  0  0  0  0
    4.0895    6.1825    5.0557 H   0  0  0  0  0  0  0  0  0  0  0  0
    4.8091    7.9639    3.4457 H   0  0  0  0  0  0  0  0  0  0  0  0
    7.2812    6.7409    0.2236 H   0  0  0  0  0  0  0  0  0  0  0  0
    6.6460    8.1562   -0.6166 H   0  0  0  0  0  0  0  0  0  0  0  0
    4.4866    6.8047   -1.0431 H   0  0  0  0  0  0  0  0  0  0  0  0
    5.3179    5.4600   -2.9315 H   0  0  0  0  0  0  0  0  0  0  0  0
    6.9921    5.5862   -2.3420 H   0  0  0  0  0  0  0  0  0  0  0  0
    6.9411    7.9386   -2.7746 H   0  0  0  0  0  0  0  0  0  0  0  0
    6.1755    6.2021   -5.0105 H   0  0  0  0  0  0  0  0  0  0  0  0
    7.8144    6.7005   -4.4463 H   0  0  0  0  0  0  0  0  0  0  0  0
    6.7282    7.9030   -5.2085 H   0  0  0  0  0  0  0  0  0  0  0  0
    4.1958    7.6373   -3.8042 H   0  0  0  0  0  0  0  0  0  0  0  0
    5.2622    9.0851   -3.9661 H   0  0  0  0  0  0  0  0  0  0  0  0
    4.7122    8.5808   -2.3538 H   0  0  0  0  0  0  0  0  0  0  0  0
    6.1803    4.3906   -0.2731 H   0  0  0  0  0  0  0  0  0  0  0  0
    4.4373    4.4848   -0.6090 H   0  0  0  0  0  0  0  0  0  0  0  0
    6.0742    1.9391    1.0511 H   0  0  0  0  0  0  0  0  0  0  0  0
    4.6227    2.3974    0.1599 H   0  0  0  0  0  0  0  0  0  0  0  0
  1  2  1  0  0  0  0
  1 26  1  0  0  0  0
  1 27  1  0  0  0  0
  1 28  1  0  0  0  0
  2  3  1  0  0  0  0
  2  4  1  0  0  0  0
  2 29  1  0  0  0  0
  3 30  1  0  0  0  0
  3 31  1  0  0  0  0
  3 32  1  0  0  0  0
  4  5  1  0  0  0  0
  4 33  1  0  0  0  0
  4 34  1  0  0  0  0
  5  6  1  0  0  0  0
  5 25  1  0  0  0  0
  5 35  1  0  0  0  0
  6  7  1  0  0  0  0
  6 36  1  0  0  0  0
  6 37  1  0  0  0  0
  7  8  1  0  0  0  0
  7 38  1  0  0  0  0
  8  9  2  0  0  0  0
  8 24  1  0  0  0  0
  9 10  1  0  0  0  0
  9 39  1  0  0  0  0
 10 11  2  0  0  0  0
 10 23  1  0  0  0  0
 11 12  1  0  0  0  0
 11 40  1  0  0  0  0
 12 13  2  0  0  0  0
 12 41  1  0  0  0  0
 13 14  1  0  0  0  0
 13 22  1  0  0  0  0
 14 15  1  0  0  0  0
 15 16  1  0  0  0  0
 15 42  1  0  0  0  0
 15 43  1  0  0  0  0
 16 17  1  0  0  0  0
 16 21  1  0  0  0  0
 16 44  1  0  0  0  0
 17 18  1  0  0  0  0
 17 45  1  0  0  0  0
 17 46  1  0  0  0  0
 18 19  1  0  0  0  0
 18 20  1  0  0  0  0
 18 47  1  0  0  0  0
 19 48  1  0  0  0  0
 19 49  1  0  0  0  0
 19 50  1  0  0  0  0
 20 51  1  0  0  0  0
 20 52  1  0  0  0  0
 20 53  1  0  0  0  0
 21 22  1  0  0  0  0
 21 54  1  0  0  0  0
 21 55  1  0  0  0  0
 22 23  2  0  0  0  0
 23 24  1  0  0  0  0
 24 25  1  0  0  0  0
 25 56  1  0  0  0  0
 25 57  1  0  0  0  0
M  CHG  3   2   1   9   1  18   1
M  END
$$$$
Target_lig_692
 OpenBabel04172516573D

 54 57  0  0  1  0  0  0  0  0999 V2000
    3.3479   -0.0479    0.7239 C   0  0  0  0  0  0  0  0  0  0  0  0
    2.9537    0.1830   -0.7149 N   0  3  0  0  0  0  0  0  0  0  0  0
    1.5078   -0.2331   -0.9014 C   0  0  0  0  0  0  0  0  0  0  0  0
    3.2769    1.6045   -1.2773 C   0  0  0  0  0  0  0  0  0  0  0  0
    4.8096    1.8523   -1.2857 C   0  0  3  0  0  0  0  0  0  0  0  0
    5.4540    3.1488   -1.9089 C   0  0  0  0  0  0  0  0  0  0  0  0
    6.7923    2.5841   -2.2928 C   0  0  0  0  0  0  0  0  0  0  0  0
    8.2052    2.9861   -2.5854 C   0  0  0  0  0  0  0  0  0  0  0  0
    8.8788    4.1942   -2.7426 N   0  0  0  0  0  0  0  0  0  0  0  0
    8.4520    5.5742   -2.9802 C   0  0  0  0  0  0  0  0  0  0  0  0
    9.5995    6.4620   -3.5499 C   0  0  3  0  0  0  0  0  0  0  0  0
   10.0057    6.2134   -5.0246 C   0  0  0  0  0  0  0  0  0  0  0  0
    8.9601    6.5326   -6.0693 N   0  3  0  0  0  0  0  0  0  0  0  0
    8.5393    7.9851   -6.1219 C   0  0  0  0  0  0  0  0  0  0  0  0
    9.4506    6.1105   -7.4539 C   0  0  0  0  0  0  0  0  0  0  0  0
   10.8437    6.2174   -2.6731 C   0  0  0  0  0  0  0  0  0  0  0  0
   11.1731    4.8020   -2.6111 N   0  0  0  0  0  0  0  0  0  0  0  0
   10.1739    3.9018   -2.6337 C   0  0  0  0  0  0  0  0  0  0  0  0
   10.3443    2.6011   -2.6679 N   0  3  0  0  0  0  0  0  0  0  0  0
    9.1297    1.9527   -2.6469 C   0  0  0  0  0  0  0  0  0  0  0  0
    8.9245    0.5930   -2.6632 C   0  0  0  0  0  0  0  0  0  0  0  0
    7.6246    0.1811   -2.5427 C   0  0  0  0  0  0  0  0  0  0  0  0
    6.6847    1.1664   -2.3103 C   0  0  0  0  0  0  0  0  0  0  0  0
    5.4061    0.7340   -1.9947 O   0  0  0  0  0  0  0  0  0  0  0  0
    3.1209   -1.0884    0.9781 H   0  0  0  0  0  0  0  0  0  0  0  0
    2.7794    0.6402    1.3536 H   0  0  0  0  0  0  0  0  0  0  0  0
    4.4220    0.1095    0.8248 H   0  0  0  0  0  0  0  0  0  0  0  0
    3.5117   -0.4779   -1.2786 H   0  0  0  0  0  0  0  0  0  0  0  0
    0.8744    0.4396   -0.3173 H   0  0  0  0  0  0  0  0  0  0  0  0
    1.4027   -1.2638   -0.5428 H   0  0  0  0  0  0  0  0  0  0  0  0
    1.2687   -0.1909   -1.9654 H   0  0  0  0  0  0  0  0  0  0  0  0
    2.7278    2.3238   -0.6640 H   0  0  0  0  0  0  0  0  0  0  0  0
    2.8836    1.5939   -2.2996 H   0  0  0  0  0  0  0  0  0  0  0  0
    5.1622    1.7915   -0.2473 H   0  0  0  0  0  0  0  0  0  0  0  0
    5.5263    3.9511   -1.1708 H   0  0  0  0  0  0  0  0  0  0  0  0
    4.9143    3.4811   -2.8003 H   0  0  0  0  0  0  0  0  0  0  0  0
    8.1372    5.9839   -2.0127 H   0  0  0  0  0  0  0  0  0  0  0  0
    7.5929    5.5817   -3.6554 H   0  0  0  0  0  0  0  0  0  0  0  0
    9.3241    7.5182   -3.4452 H   0  0  0  0  0  0  0  0  0  0  0  0
   10.2743    5.1609   -5.1724 H   0  0  0  0  0  0  0  0  0  0  0  0
   10.8857    6.8185   -5.2835 H   0  0  0  0  0  0  0  0  0  0  0  0
    8.1129    5.9732   -5.9145 H   0  0  0  0  0  0  0  0  0  0  0  0
    9.4330    8.6066   -6.2194 H   0  0  0  0  0  0  0  0  0  0  0  0
    7.9935    8.2076   -5.2034 H   0  0  0  0  0  0  0  0  0  0  0  0
    7.8751    8.1145   -6.9813 H   0  0  0  0  0  0  0  0  0  0  0  0
   10.3220    6.7175   -7.7152 H   0  0  0  0  0  0  0  0  0  0  0  0
    8.6317    6.2637   -8.1613 H   0  0  0  0  0  0  0  0  0  0  0  0
    9.7082    5.0489   -7.4092 H   0  0  0  0  0  0  0  0  0  0  0  0
   10.6797    6.5646   -1.6476 H   0  0  0  0  0  0  0  0  0  0  0  0
   11.7215    6.7486   -3.0605 H   0  0  0  0  0  0  0  0  0  0  0  0
   12.1212    4.4635   -2.4758 H   0  0  0  0  0  0  0  0  0  0  0  0
   11.2375    2.1202   -2.6561 H   0  0  0  0  0  0  0  0  0  0  0  0
    9.7489   -0.1075   -2.7515 H   0  0  0  0  0  0  0  0  0  0  0  0
    7.3529   -0.8665   -2.5437 H   0  0  0  0  0  0  0  0  0  0  0  0
  1  2  1  0  0  0  0
  1 25  1  0  0  0  0
  1 26  1  0  0  0  0
  1 27  1  0  0  0  0
  2  3  1  0  0  0  0
  2  4  1  0  0  0  0
  2 28  1  0  0  0  0
  3 29  1  0  0  0  0
  3 30  1  0  0  0  0
  3 31  1  0  0  0  0
  4  5  1  0  0  0  0
  4 32  1  0  0  0  0
  4 33  1  0  0  0  0
  5  6  1  0  0  0  0
  5 24  1  0  0  0  0
  5 34  1  0  0  0  0
  6  7  1  0  0  0  0
  6 35  1  0  0  0  0
  6 36  1  0  0  0  0
  7  8  2  0  0  0  0
  7 23  1  0  0  0  0
  8  9  1  0  0  0  0
  8 20  1  0  0  0  0
  9 10  1  0  0  0  0
  9 18  1  0  0  0  0
 10 11  1  0  0  0  0
 10 37  1  0  0  0  0
 10 38  1  0  0  0  0
 11 12  1  0  0  0  0
 11 16  1  0  0  0  0
 11 39  1  0  0  0  0
 12 13  1  0  0  0  0
 12 40  1  0  0  0  0
 12 41  1  0  0  0  0
 13 14  1  0  0  0  0
 13 15  1  0  0  0  0
 13 42  1  0  0  0  0
 14 43  1  0  0  0  0
 14 44  1  0  0  0  0
 14 45  1  0  0  0  0
 15 46  1  0  0  0  0
 15 47  1  0  0  0  0
 15 48  1  0  0  0  0
 16 17  1  0  0  0  0
 16 49  1  0  0  0  0
 16 50  1  0  0  0  0
 17 18  1  0  0  0  0
 17 51  1  0  0  0  0
 18 19  2  0  0  0  0
 19 20  1  0  0  0  0
 19 52  1  0  0  0  0
 20 21  2  0  0  0  0
 21 22  1  0  0  0  0
 21 53  1  0  0  0  0
 22 23  2  0  0  0  0
 22 54  1  0  0  0  0
 23 24  1  0  0  0  0
M  CHG  3   2   1  13   1  19   1
M  END
$$$$
Target_lig_693
 OpenBabel04172516573D

 60 60  0  0  0  0  0  0  0  0999 V2000
    8.2763   -5.0106   -0.1408 C   0  0  0  0  0  0  0  0  0  0  0  0
    6.9482   -4.3181    0.1053 N   0  3  0  0  0  0  0  0  0  0  0  0
    5.8245   -5.3307    0.0982 C   0  0  0  0  0  0  0  0  0  0  0  0
    7.0294   -3.4753    1.3427 C   0  0  0  0  0  0  0  0  0  0  0  0
    5.7873   -2.6179    1.5319 C   0  0  0  0  0  0  0  0  0  0  0  0
    5.8737   -1.8252    2.8234 C   0  0  0  0  0  0  0  0  0  0  0  0
    6.8751   -0.7397    2.8216 N   0  3  0  0  0  0  0  0  0  0  0  0
    7.2123    0.0828    3.8225 C   0  0  0  0  0  0  0  0  0  0  0  0
    6.5827    0.0866    5.2025 C   0  0  0  0  0  0  0  0  0  0  0  0
    5.5976   -0.8144    5.5910 C   0  0  0  0  0  0  0  0  0  0  0  0
    4.9658   -0.7931    6.8357 C   0  0  0  0  0  0  0  0  0  0  0  0
    5.2303    0.1460    7.8217 C   0  0  0  0  0  0  0  0  0  0  0  0
    6.2605    1.0398    7.4761 C   0  0  0  0  0  0  0  0  0  0  0  0
    6.9202    1.0047    6.2120 C   0  0  0  0  0  0  0  0  0  0  0  0
    4.4872    0.1848    9.1343 C   0  0  0  0  0  0  0  0  0  0  0  0
    3.4584   -0.6039    9.4726 N   0  3  0  0  0  0  0  0  0  0  0  0
    2.7939   -1.6505    8.6652 C   0  0  0  0  0  0  0  0  0  0  0  0
    1.5885   -2.2881    9.3317 C   0  0  0  0  0  0  0  0  0  0  0  0
    0.4571   -1.2907    9.5056 C   0  0  0  0  0  0  0  0  0  0  0  0
   -0.7799   -1.9338   10.0660 N   0  3  0  0  0  0  0  0  0  0  0  0
   -0.5800   -2.6462   11.3840 C   0  0  0  0  0  0  0  0  0  0  0  0
   -1.8918   -0.9096   10.1768 C   0  0  0  0  0  0  0  0  0  0  0  0
    4.8521    1.0759   10.0410 N   0  0  0  0  0  0  0  0  0  0  0  0
    8.1567    0.9768    3.5525 N   0  0  0  0  0  0  0  0  0  0  0  0
    8.2103   -5.5421   -1.0897 H   0  0  0  0  0  0  0  0  0  0  0  0
    8.4627   -5.6925    0.6940 H   0  0  0  0  0  0  0  0  0  0  0  0
    9.0473   -4.2367   -0.1905 H   0  0  0  0  0  0  0  0  0  0  0  0
    6.7979   -3.7163   -0.7178 H   0  0  0  0  0  0  0  0  0  0  0  0
    5.9047   -5.9435    1.0001 H   0  0  0  0  0  0  0  0  0  0  0  0
    5.9149   -5.9368   -0.8067 H   0  0  0  0  0  0  0  0  0  0  0  0
    4.8771   -4.7890    0.0745 H   0  0  0  0  0  0  0  0  0  0  0  0
    7.9038   -2.8245    1.2333 H   0  0  0  0  0  0  0  0  0  0  0  0
    7.1927   -4.1474    2.1937 H   0  0  0  0  0  0  0  0  0  0  0  0
    4.9076   -3.2673    1.6305 H   0  0  0  0  0  0  0  0  0  0  0  0
    5.6147   -1.9567    0.6782 H   0  0  0  0  0  0  0  0  0  0  0  0
    6.1414   -2.5387    3.6096 H   0  0  0  0  0  0  0  0  0  0  0  0
    4.8902   -1.3767    2.9985 H   0  0  0  0  0  0  0  0  0  0  0  0
    7.3326   -0.5429    1.9384 H   0  0  0  0  0  0  0  0  0  0  0  0
    5.2124   -1.6081    4.9806 H   0  0  0  0  0  0  0  0  0  0  0  0
    4.2557   -1.5925    6.9295 H   0  0  0  0  0  0  0  0  0  0  0  0
    6.6042    1.8092    8.1655 H   0  0  0  0  0  0  0  0  0  0  0  0
    7.7025    1.7482    6.0670 H   0  0  0  0  0  0  0  0  0  0  0  0
    3.1432   -0.4984   10.4302 H   0  0  0  0  0  0  0  0  0  0  0  0
    3.5180   -2.4551    8.5028 H   0  0  0  0  0  0  0  0  0  0  0  0
    2.4593   -1.2059    7.7215 H   0  0  0  0  0  0  0  0  0  0  0  0
    1.9028   -2.7244   10.2837 H   0  0  0  0  0  0  0  0  0  0  0  0
    1.2446   -3.1119    8.6901 H   0  0  0  0  0  0  0  0  0  0  0  0
    0.1790   -0.8573    8.5372 H   0  0  0  0  0  0  0  0  0  0  0  0
    0.7494   -0.4841   10.1862 H   0  0  0  0  0  0  0  0  0  0  0  0
   -1.1301   -2.6447    9.4050 H   0  0  0  0  0  0  0  0  0  0  0  0
   -0.1188   -1.9460   12.0853 H   0  0  0  0  0  0  0  0  0  0  0  0
    0.0655   -3.5101   11.2087 H   0  0  0  0  0  0  0  0  0  0  0  0
   -1.5534   -2.9909   11.7405 H   0  0  0  0  0  0  0  0  0  0  0  0
   -1.5746   -0.1404   10.8850 H   0  0  0  0  0  0  0  0  0  0  0  0
   -2.7961   -1.4239   10.5182 H   0  0  0  0  0  0  0  0  0  0  0  0
   -2.0509   -0.4835    9.1825 H   0  0  0  0  0  0  0  0  0  0  0  0
    5.6117    1.7304    9.8923 H   0  0  0  0  0  0  0  0  0  0  0  0
    4.3956    1.1910   10.9372 H   0  0  0  0  0  0  0  0  0  0  0  0
    8.6124    1.0493    2.6587 H   0  0  0  0  0  0  0  0  0  0  0  0
    8.4789    1.6412    4.2350 H   0  0  0  0  0  0  0  0  0  0  0  0
  1  2  1  0  0  0  0
  1 25  1  0  0  0  0
  1 26  1  0  0  0  0
  1 27  1  0  0  0  0
  2  3  1  0  0  0  0
  2  4  1  0  0  0  0
  2 28  1  0  0  0  0
  3 29  1  0  0  0  0
  3 30  1  0  0  0  0
  3 31  1  0  0  0  0
  4  5  1  0  0  0  0
  4 32  1  0  0  0  0
  4 33  1  0  0  0  0
  5  6  1  0  0  0  0
  5 34  1  0  0  0  0
  5 35  1  0  0  0  0
  6  7  1  0  0  0  0
  6 36  1  0  0  0  0
  6 37  1  0  0  0  0
  7  8  2  3  0  0  0
  7 38  1  0  0  0  0
  8  9  1  0  0  0  0
  8 24  1  0  0  0  0
  9 10  2  0  0  0  0
  9 14  1  0  0  0  0
 10 11  1  0  0  0  0
 10 39  1  0  0  0  0
 11 12  2  0  0  0  0
 11 40  1  0  0  0  0
 12 13  1  0  0  0  0
 12 15  1  0  0  0  0
 13 14  2  0  0  0  0
 13 41  1  0  0  0  0
 14 42  1  0  0  0  0
 15 16  2  3  0  0  0
 15 23  1  0  0  0  0
 16 17  1  0  0  0  0
 16 43  1  0  0  0  0
 17 18  1  0  0  0  0
 17 44  1  0  0  0  0
 17 45  1  0  0  0  0
 18 19  1  0  0  0  0
 18 46  1  0  0  0  0
 18 47  1  0  0  0  0
 19 20  1  0  0  0  0
 19 48  1  0  0  0  0
 19 49  1  0  0  0  0
 20 21  1  0  0  0  0
 20 22  1  0  0  0  0
 20 50  1  0  0  0  0
 21 51  1  0  0  0  0
 21 52  1  0  0  0  0
 21 53  1  0  0  0  0
 22 54  1  0  0  0  0
 22 55  1  0  0  0  0
 22 56  1  0  0  0  0
 23 57  1  0  0  0  0
 23 58  1  0  0  0  0
 24 59  1  0  0  0  0
 24 60  1  0  0  0  0
M  CHG  4   2   1   7   1  16   1  20   1
M  END
$$$$
Target_lig_694
 OpenBabel04172516573D

 58 60  0  0  0  0  0  0  0  0999 V2000
    4.4830    3.1529   -0.1629 C   0  0  0  0  0  0  0  0  0  0  0  0
    4.1398    2.0146   -1.1058 C   0  0  0  0  0  0  0  0  0  0  0  0
    4.6982    0.6844   -0.6359 N   0  3  0  0  0  0  0  0  0  0  0  0
    4.3395    0.2988    0.7907 C   0  0  0  0  0  0  0  0  0  0  0  0
    2.8557    0.0212    0.9735 C   0  0  0  0  0  0  0  0  0  0  0  0
    4.4508   -0.4610   -1.6272 C   0  0  0  0  0  0  0  0  0  0  0  0
    5.0728   -0.1877   -3.0087 C   0  0  0  0  0  0  0  0  0  0  0  0
    6.4679    0.0966   -2.8445 O   0  0  0  0  0  0  0  0  0  0  0  0
    7.1648    0.2310   -4.0219 C   0  0  0  0  0  0  0  0  0  0  0  0
    6.6682    0.8553   -5.1676 C   0  0  0  0  0  0  0  0  0  0  0  0
    7.4539    0.9255   -6.3322 C   0  0  0  0  0  0  0  0  0  0  0  0
    8.7437    0.3796   -6.3632 C   0  0  0  0  0  0  0  0  0  0  0  0
    9.2559   -0.1911   -5.1929 C   0  0  0  0  0  0  0  0  0  0  0  0
    8.4725   -0.2590   -4.0291 C   0  0  0  0  0  0  0  0  0  0  0  0
    9.4947    0.3122   -7.6528 C   0  0  0  0  0  0  0  0  0  0  0  0
   10.3038    1.3130   -8.0702 C   0  0  0  0  0  0  0  0  0  0  0  0
   10.6076    2.5249   -7.2938 C   0  0  0  0  0  0  0  0  0  0  0  0
   11.7338    2.5377   -6.4583 C   0  0  0  0  0  0  0  0  0  0  0  0
   12.0430    3.6718   -5.7096 C   0  0  0  0  0  0  0  0  0  0  0  0
   11.2332    4.8034   -5.7964 C   0  0  0  0  0  0  0  0  0  0  0  0
   10.1287    4.8095   -6.6486 C   0  0  0  0  0  0  0  0  0  0  0  0
    9.8172    3.6752   -7.4007 C   0  0  0  0  0  0  0  0  0  0  0  0
   11.1596    1.2708   -9.5944 Cl  0  0  0  0  0  0  0  0  0  0  0  0
    9.3846   -0.9092   -8.4936 C   0  0  0  0  0  0  0  0  0  0  0  0
   10.2484   -1.9894   -8.2630 C   0  0  0  0  0  0  0  0  0  0  0  0
   10.1839   -3.1278   -9.0674 C   0  0  0  0  0  0  0  0  0  0  0  0
    9.2572   -3.1947  -10.1060 C   0  0  0  0  0  0  0  0  0  0  0  0
    8.3903   -2.1251  -10.3379 C   0  0  0  0  0  0  0  0  0  0  0  0
    8.4519   -0.9858   -9.5345 C   0  0  0  0  0  0  0  0  0  0  0  0
    4.2845    4.1099   -0.6574 H   0  0  0  0  0  0  0  0  0  0  0  0
    5.5391    3.1360    0.1239 H   0  0  0  0  0  0  0  0  0  0  0  0
    3.8696    3.1248    0.7425 H   0  0  0  0  0  0  0  0  0  0  0  0
    4.6024    2.2298   -2.0715 H   0  0  0  0  0  0  0  0  0  0  0  0
    3.0602    1.9055   -1.2434 H   0  0  0  0  0  0  0  0  0  0  0  0
    5.7251    0.7998   -0.6447 H   0  0  0  0  0  0  0  0  0  0  0  0
    4.6710    1.1108    1.4456 H   0  0  0  0  0  0  0  0  0  0  0  0
    4.9326   -0.5855    1.0459 H   0  0  0  0  0  0  0  0  0  0  0  0
    2.2201    0.7732    0.4994 H   0  0  0  0  0  0  0  0  0  0  0  0
    2.6087    0.0095    2.0406 H   0  0  0  0  0  0  0  0  0  0  0  0
    2.5876   -0.9604    0.5699 H   0  0  0  0  0  0  0  0  0  0  0  0
    3.3686   -0.6052   -1.7026 H   0  0  0  0  0  0  0  0  0  0  0  0
    4.9158   -1.3487   -1.1802 H   0  0  0  0  0  0  0  0  0  0  0  0
    4.5526    0.6536   -3.4769 H   0  0  0  0  0  0  0  0  0  0  0  0
    4.9340   -1.0747   -3.6384 H   0  0  0  0  0  0  0  0  0  0  0  0
    5.6829    1.3027   -5.1997 H   0  0  0  0  0  0  0  0  0  0  0  0
    7.0389    1.3934   -7.2224 H   0  0  0  0  0  0  0  0  0  0  0  0
   10.2592   -0.6105   -5.1844 H   0  0  0  0  0  0  0  0  0  0  0  0
    8.8879   -0.7286   -3.1415 H   0  0  0  0  0  0  0  0  0  0  0  0
   12.3866    1.6682   -6.4049 H   0  0  0  0  0  0  0  0  0  0  0  0
   12.9196    3.6763   -5.0669 H   0  0  0  0  0  0  0  0  0  0  0  0
   11.4750    5.6875   -5.2128 H   0  0  0  0  0  0  0  0  0  0  0  0
    9.5171    5.7040   -6.7351 H   0  0  0  0  0  0  0  0  0  0  0  0
    8.9699    3.6994   -8.0811 H   0  0  0  0  0  0  0  0  0  0  0  0
   10.9897   -1.9430   -7.4695 H   0  0  0  0  0  0  0  0  0  0  0  0
   10.8667   -3.9554   -8.8931 H   0  0  0  0  0  0  0  0  0  0  0  0
    9.2185   -4.0759  -10.7419 H   0  0  0  0  0  0  0  0  0  0  0  0
    7.6798   -2.1769  -11.1597 H   0  0  0  0  0  0  0  0  0  0  0  0
    7.7820   -0.1534   -9.7378 H   0  0  0  0  0  0  0  0  0  0  0  0
  1  2  1  0  0  0  0
  1 30  1  0  0  0  0
  1 31  1  0  0  0  0
  1 32  1  0  0  0  0
  2  3  1  0  0  0  0
  2 33  1  0  0  0  0
  2 34  1  0  0  0  0
  3  4  1  0  0  0  0
  3  6  1  0  0  0  0
  3 35  1  0  0  0  0
  4  5  1  0  0  0  0
  4 36  1  0  0  0  0
  4 37  1  0  0  0  0
  5 38  1  0  0  0  0
  5 39  1  0  0  0  0
  5 40  1  0  0  0  0
  6  7  1  0  0  0  0
  6 41  1  0  0  0  0
  6 42  1  0  0  0  0
  7  8  1  0  0  0  0
  7 43  1  0  0  0  0
  7 44  1  0  0  0  0
  8  9  1  0  0  0  0
  9 10  2  0  0  0  0
  9 14  1  0  0  0  0
 10 11  1  0  0  0  0
 10 45  1  0  0  0  0
 11 12  2  0  0  0  0
 11 46  1  0  0  0  0
 12 13  1  0  0  0  0
 12 15  1  0  0  0  0
 13 14  2  0  0  0  0
 13 47  1  0  0  0  0
 14 48  1  0  0  0  0
 15 16  2  0  0  0  0
 15 24  1  0  0  0  0
 16 17  1  0  0  0  0
 16 23  1  0  0  0  0
 17 18  2  0  0  0  0
 17 22  1  0  0  0  0
 18 19  1  0  0  0  0
 18 49  1  0  0  0  0
 19 20  2  0  0  0  0
 19 50  1  0  0  0  0
 20 21  1  0  0  0  0
 20 51  1  0  0  0  0
 21 22  2  0  0  0  0
 21 52  1  0  0  0  0
 22 53  1  0  0  0  0
 24 25  2  0  0  0  0
 24 29  1  0  0  0  0
 25 26  1  0  0  0  0
 25 54  1  0  0  0  0
 26 27  2  0  0  0  0
 26 55  1  0  0  0  0
 27 28  1  0  0  0  0
 27 56  1  0  0  0  0
 28 29  2  0  0  0  0
 28 57  1  0  0  0  0
 29 58  1  0  0  0  0
M  CHG  1   3   1
M  END
$$$$
Target_lig_695
 OpenBabel04172516573D

 44 47  0  0  1  0  0  0  0  0999 V2000
    1.1326    0.0630   -0.0069 C   0  0  0  0  0  0  0  0  0  0  0  0
    2.6268    0.0619    0.1523 N   0  3  3  0  0  0  0  0  0  0  0  0
    3.1047    1.3293    0.8464 C   0  0  0  0  0  0  0  0  0  0  0  0
    4.6248    1.3083    1.0217 C   0  0  0  0  0  0  0  0  0  0  0  0
    5.0353    0.0633    1.7907 C   0  0  0  0  0  0  0  0  0  0  0  0
    5.5751    0.0635    3.0372 C   0  0  0  0  0  0  0  0  0  0  0  0
    5.8017   -1.2014    3.7797 C   0  0  0  0  0  0  0  0  0  0  0  0
    6.8441   -2.0579    3.3940 C   0  0  0  0  0  0  0  0  0  0  0  0
    7.1075   -3.2172    4.1210 C   0  0  0  0  0  0  0  0  0  0  0  0
    6.3374   -3.5253    5.2395 C   0  0  0  0  0  0  0  0  0  0  0  0
    5.3072   -2.6713    5.6399 C   0  0  0  0  0  0  0  0  0  0  0  0
    5.0401   -1.4908    4.9316 C   0  0  0  0  0  0  0  0  0  0  0  0
    3.9612   -0.6138    5.4286 C   0  0  0  0  0  0  0  0  0  0  0  0
    3.9600    0.7314    5.4312 C   0  0  0  0  0  0  0  0  0  0  0  0
    5.0371    1.6116    4.9359 C   0  0  0  0  0  0  0  0  0  0  0  0
    5.3054    2.7884    5.6502 C   0  0  0  0  0  0  0  0  0  0  0  0
    6.3321    3.6477    5.2494 C   0  0  0  0  0  0  0  0  0  0  0  0
    7.0978    3.3459    4.1261 C   0  0  0  0  0  0  0  0  0  0  0  0
    6.8362    2.1881    3.3954 C   0  0  0  0  0  0  0  0  0  0  0  0
    5.7975    1.3279    3.7821 C   0  0  0  0  0  0  0  0  0  0  0  0
    4.6249   -1.1819    1.0239 C   0  0  0  0  0  0  0  0  0  0  0  0
    3.1042   -1.2027    0.8517 C   0  0  0  0  0  0  0  0  0  0  0  0
    0.8543    0.9455   -0.5881 H   0  0  0  0  0  0  0  0  0  0  0  0
    0.6761    0.0894    0.9869 H   0  0  0  0  0  0  0  0  0  0  0  0
    0.8462   -0.8453   -0.5429 H   0  0  0  0  0  0  0  0  0  0  0  0
    3.0362    0.0589   -0.7909 H   0  0  0  0  0  0  0  0  0  0  0  0
    2.5882    1.3909    1.8108 H   0  0  0  0  0  0  0  0  0  0  0  0
    2.8033    2.1708    0.2133 H   0  0  0  0  0  0  0  0  0  0  0  0
    4.9268    2.2400    1.5048 H   0  0  0  0  0  0  0  0  0  0  0  0
    5.1187    1.3012    0.0415 H   0  0  0  0  0  0  0  0  0  0  0  0
    7.4705   -1.8123    2.5397 H   0  0  0  0  0  0  0  0  0  0  0  0
    7.9269   -3.8692    3.8288 H   0  0  0  0  0  0  0  0  0  0  0  0
    6.5551   -4.4202    5.8184 H   0  0  0  0  0  0  0  0  0  0  0  0
    4.7406   -2.9199    6.5354 H   0  0  0  0  0  0  0  0  0  0  0  0
    3.1185   -1.1294    5.8861 H   0  0  0  0  0  0  0  0  0  0  0  0
    3.1172    1.2447    5.8910 H   0  0  0  0  0  0  0  0  0  0  0  0
    4.7435    3.0304    6.5505 H   0  0  0  0  0  0  0  0  0  0  0  0
    6.5511    4.5388    5.8332 H   0  0  0  0  0  0  0  0  0  0  0  0
    7.9142    4.0020    3.8339 H   0  0  0  0  0  0  0  0  0  0  0  0
    7.4601    1.9488    2.5386 H   0  0  0  0  0  0  0  0  0  0  0  0
    4.9270   -2.1131    1.5066 H   0  0  0  0  0  0  0  0  0  0  0  0
    5.1169   -1.1768    0.0408 H   0  0  0  0  0  0  0  0  0  0  0  0
    2.5884   -1.2598    1.8172 H   0  0  0  0  0  0  0  0  0  0  0  0
    2.8009   -2.0470    0.2228 H   0  0  0  0  0  0  0  0  0  0  0  0
  1  2  1  0  0  0  0
  1 23  1  0  0  0  0
  1 24  1  0  0  0  0
  1 25  1  0  0  0  0
  2  3  1  0  0  0  0
  2 22  1  0  0  0  0
  2 26  1  0  0  0  0
  3  4  1  0  0  0  0
  3 27  1  0  0  0  0
  3 28  1  0  0  0  0
  4  5  1  0  0  0  0
  4 29  1  0  0  0  0
  4 30  1  0  0  0  0
  5  6  2  3  0  0  0
  5 21  1  0  0  0  0
  6  7  1  0  0  0  0
  6 20  1  0  0  0  0
  7  8  2  0  0  0  0
  7 12  1  0  0  0  0
  8  9  1  0  0  0  0
  8 31  1  0  0  0  0
  9 10  2  0  0  0  0
  9 32  1  0  0  0  0
 10 11  1  0  0  0  0
 10 33  1  0  0  0  0
 11 12  2  0  0  0  0
 11 34  1  0  0  0  0
 12 13  1  0  0  0  0
 13 14  2  0  0  0  0
 13 35  1  0  0  0  0
 14 15  1  0  0  0  0
 14 36  1  0  0  0  0
 15 16  2  0  0  0  0
 15 20  1  0  0  0  0
 16 17  1  0  0  0  0
 16 37  1  0  0  0  0
 17 18  2  0  0  0  0
 17 38  1  0  0  0  0
 18 19  1  0  0  0  0
 18 39  1  0  0  0  0
 19 20  2  0  0  0  0
 19 40  1  0  0  0  0
 21 22  1  0  0  0  0
 21 41  1  0  0  0  0
 21 42  1  0  0  0  0
 22 43  1  0  0  0  0
 22 44  1  0  0  0  0
M  CHG  1   2   1
M  END
$$$$
Target_lig_1258
 OpenBabel04172516573D

 48 51  0  0  0  0  0  0  0  0999 V2000
    1.1049   -0.0706   -0.0291 C   0  0  0  0  0  0  0  0  0  0  0  0
    2.5626   -0.1039   -0.0616 N   0  0  0  0  0  0  0  0  0  0  0  0
    3.3119    1.0613   -0.0080 C   0  0  0  0  0  0  0  0  0  0  0  0
    4.6488    1.1611   -0.0333 C   0  0  0  0  0  0  0  0  0  0  0  0
    5.2926    2.5383    0.0966 C   0  0  0  0  0  0  0  0  0  0  0  0
    6.4066    2.6000    0.6845 O   0  5  0  0  0  0  0  0  0  0  0  0
    4.5852    3.5058   -0.3299 O   0  0  0  0  0  0  0  0  0  0  0  0
    5.4122   -0.0958   -0.1696 C   0  0  0  0  0  0  0  0  0  0  0  0
    6.6237   -0.1552   -0.3558 O   0  0  0  0  0  0  0  0  0  0  0  0
    4.6395   -1.3696   -0.1092 C   0  0  0  0  0  0  0  0  0  0  0  0
    5.3468   -2.5773   -0.0845 C   0  0  0  0  0  0  0  0  0  0  0  0
    4.6739   -3.7847    0.0958 C   0  0  0  0  0  0  0  0  0  0  0  0
    5.4308   -4.9844    0.1417 N   0  0  0  0  0  0  0  0  0  0  0  0
    3.2556   -3.8184    0.1074 C   0  0  0  0  0  0  0  0  0  0  0  0
    2.5711   -2.5869    0.0206 C   0  0  0  0  0  0  0  0  0  0  0  0
    3.2345   -1.3458   -0.0559 C   0  0  0  0  0  0  0  0  0  0  0  0
    2.5864   -5.0247    0.3357 N   0  0  0  0  0  0  0  0  0  0  0  0
    1.2521   -5.0283    0.9686 C   0  0  0  0  0  0  0  0  0  0  0  0
    1.0456   -6.3650    1.7126 C   0  0  0  0  0  0  0  0  0  0  0  0
    1.3184   -7.5183    0.8336 N   0  0  0  0  0  0  0  0  0  0  0  0
    2.5718   -7.4729    0.0662 C   0  0  0  0  0  0  0  0  0  0  0  0
    2.7240   -6.1101   -0.6591 C   0  0  0  0  0  0  0  0  0  0  0  0
    0.4497   -8.5793    0.8202 C   0  0  0  0  0  0  0  0  0  0  0  0
    0.8597   -9.8701    0.4880 C   0  0  0  0  0  0  0  0  0  0  0  0
   -0.0622  -10.9160    0.4371 C   0  0  0  0  0  0  0  0  0  0  0  0
   -1.3922  -10.6570    0.7171 C   0  0  0  0  0  0  0  0  0  0  0  0
   -1.7303   -9.3637    1.0592 C   0  0  0  0  0  0  0  0  0  0  0  0
   -0.8460   -8.3406    1.1241 N   0  0  0  0  0  0  0  0  0  0  0  0
    0.7219    0.9571   -0.0308 H   0  0  0  0  0  0  0  0  0  0  0  0
    0.7195   -0.5515    0.8769 H   0  0  0  0  0  0  0  0  0  0  0  0
    0.6840   -0.5662   -0.9111 H   0  0  0  0  0  0  0  0  0  0  0  0
    2.7148    1.9682    0.0741 H   0  0  0  0  0  0  0  0  0  0  0  0
    6.4322   -2.5585   -0.1421 H   0  0  0  0  0  0  0  0  0  0  0  0
    6.3689   -4.8233    0.4953 H   0  0  0  0  0  0  0  0  0  0  0  0
    4.9146   -5.6554    0.7054 H   0  0  0  0  0  0  0  0  0  0  0  0
    1.4868   -2.6033    0.0266 H   0  0  0  0  0  0  0  0  0  0  0  0
    0.4732   -4.8976    0.2056 H   0  0  0  0  0  0  0  0  0  0  0  0
    1.1547   -4.2183    1.7009 H   0  0  0  0  0  0  0  0  0  0  0  0
    0.0385   -6.3731    2.1435 H   0  0  0  0  0  0  0  0  0  0  0  0
    1.7462   -6.4125    2.5537 H   0  0  0  0  0  0  0  0  0  0  0  0
    2.6243   -8.2595   -0.6933 H   0  0  0  0  0  0  0  0  0  0  0  0
    3.4104   -7.6188    0.7586 H   0  0  0  0  0  0  0  0  0  0  0  0
    1.9354   -6.0105   -1.4170 H   0  0  0  0  0  0  0  0  0  0  0  0
    3.6754   -6.0957   -1.1986 H   0  0  0  0  0  0  0  0  0  0  0  0
    1.9035  -10.0877    0.2938 H   0  0  0  0  0  0  0  0  0  0  0  0
    0.2642  -11.9188    0.1795 H   0  0  0  0  0  0  0  0  0  0  0  0
   -2.1429  -11.4369    0.6761 H   0  0  0  0  0  0  0  0  0  0  0  0
   -2.7536   -9.0945    1.2916 H   0  0  0  0  0  0  0  0  0  0  0  0
  1  2  1  0  0  0  0
  1 29  1  0  0  0  0
  1 30  1  0  0  0  0
  1 31  1  0  0  0  0
  2  3  1  0  0  0  0
  2 16  1  0  0  0  0
  3  4  2  0  0  0  0
  3 32  1  0  0  0  0
  4  5  1  0  0  0  0
  4  8  1  0  0  0  0
  5  6  1  0  0  0  0
  5  7  2  0  0  0  0
  8  9  2  0  0  0  0
  8 10  1  0  0  0  0
 10 11  2  0  0  0  0
 10 16  1  0  0  0  0
 11 12  1  0  0  0  0
 11 33  1  0  0  0  0
 12 13  1  0  0  0  0
 12 14  2  0  0  0  0
 13 34  1  0  0  0  0
 13 35  1  0  0  0  0
 14 15  1  0  0  0  0
 14 17  1  0  0  0  0
 15 16  2  0  0  0  0
 15 36  1  0  0  0  0
 17 18  1  0  0  0  0
 17 22  1  0  0  0  0
 18 19  1  0  0  0  0
 18 37  1  0  0  0  0
 18 38  1  0  0  0  0
 19 20  1  0  0  0  0
 19 39  1  0  0  0  0
 19 40  1  0  0  0  0
 20 21  1  0  0  0  0
 20 23  1  0  0  0  0
 21 22  1  0  0  0  0
 21 41  1  0  0  0  0
 21 42  1  0  0  0  0
 22 43  1  0  0  0  0
 22 44  1  0  0  0  0
 23 24  2  0  0  0  0
 23 28  1  0  0  0  0
 24 25  1  0  0  0  0
 24 45  1  0  0  0  0
 25 26  2  0  0  0  0
 25 46  1  0  0  0  0
 26 27  1  0  0  0  0
 26 47  1  0  0  0  0
 27 28  2  0  0  0  0
 27 48  1  0  0  0  0
M  CHG  1   6  -1
M  END
$$$$
Target_lig_698
 OpenBabel04172516573D

 50 51  0  0  1  0  0  0  0  0999 V2000
    0.9131   -0.4769   -1.6068 C   0  0  0  0  0  0  0  0  0  0  0  0
    2.4174   -0.5630   -1.5693 C   0  0  0  0  0  0  0  0  0  0  0  0
    3.0202   -1.2703   -2.3701 O   0  0  0  0  0  0  0  0  0  0  0  0
    2.9618    0.2333   -0.5846 N   0  0  0  0  0  0  0  0  0  0  0  0
    4.3131    0.2953   -0.3920 C   0  0  0  0  0  0  0  0  0  0  0  0
    5.2682   -0.1259   -1.1792 N   0  0  0  0  0  0  0  0  0  0  0  0
    6.4976    0.0776   -0.5794 C   0  0  0  0  0  0  0  0  0  0  0  0
    6.4406    0.6729    0.6700 C   0  0  0  0  0  0  0  0  0  0  0  0
    4.8003    1.0347    1.0634 S   0  0  0  0  0  0  0  0  0  0  0  0
    7.7183   -0.2172   -1.3044 C   0  0  0  0  0  0  0  0  0  0  0  0
    7.7171   -0.0022   -2.6903 C   0  0  0  0  0  0  0  0  0  0  0  0
    8.8604   -0.2036   -3.4593 C   0  0  0  0  0  0  0  0  0  0  0  0
    8.9164    0.0864   -4.8456 N   0  0  0  0  0  0  0  0  0  0  0  0
    7.9937    0.8568   -5.5276 C   0  0  0  0  0  0  0  0  0  0  0  0
    6.9990    1.4194   -5.0745 O   0  0  0  0  0  0  0  0  0  0  0  0
    8.2365    1.0048   -7.0336 C   0  0  1  0  0  0  0  0  0  0  0  0
    6.9948    0.5366   -7.7539 N   0  3  0  0  0  0  0  0  0  0  0  0
    8.4429    2.4930   -7.3936 C   0  0  0  0  0  0  0  0  0  0  0  0
    9.6711    3.1360   -6.7240 C   0  0  0  0  0  0  0  0  0  0  0  0
    9.8097    4.6218   -7.1027 C   0  0  0  0  0  0  0  0  0  0  0  0
   11.0251    5.2693   -6.4381 C   0  0  0  0  0  0  0  0  0  0  0  0
   11.1159    6.6946   -6.8360 N   0  3  0  0  0  0  0  0  0  0  0  0
   10.0100   -0.7065   -2.8385 C   0  0  0  0  0  0  0  0  0  0  0  0
   10.0140   -0.9480   -1.4571 C   0  0  0  0  0  0  0  0  0  0  0  0
    8.8777   -0.6944   -0.6903 C   0  0  0  0  0  0  0  0  0  0  0  0
    0.5173   -1.3183   -2.1805 H   0  0  0  0  0  0  0  0  0  0  0  0
    0.6195    0.4588   -2.0881 H   0  0  0  0  0  0  0  0  0  0  0  0
    0.4979   -0.5240   -0.5957 H   0  0  0  0  0  0  0  0  0  0  0  0
    2.3766    0.6857    0.1022 H   0  0  0  0  0  0  0  0  0  0  0  0
    7.2435    0.9446    1.3342 H   0  0  0  0  0  0  0  0  0  0  0  0
    6.7818    0.3204   -3.1390 H   0  0  0  0  0  0  0  0  0  0  0  0
    9.7579   -0.2363   -5.3079 H   0  0  0  0  0  0  0  0  0  0  0  0
    9.0605    0.3778   -7.3846 H   0  0  0  0  0  0  0  0  0  0  0  0
    6.1780    1.0688   -7.4049 H   0  0  0  0  0  0  0  0  0  0  0  0
    6.7773   -0.4457   -7.5268 H   0  0  0  0  0  0  0  0  0  0  0  0
    7.0353    0.6279   -8.7750 H   0  0  0  0  0  0  0  0  0  0  0  0
    7.5531    3.0689   -7.1058 H   0  0  0  0  0  0  0  0  0  0  0  0
    8.5388    2.5896   -8.4817 H   0  0  0  0  0  0  0  0  0  0  0  0
   10.5752    2.5931   -7.0224 H   0  0  0  0  0  0  0  0  0  0  0  0
    9.5891    3.0568   -5.6352 H   0  0  0  0  0  0  0  0  0  0  0  0
    8.9005    5.1587   -6.8045 H   0  0  0  0  0  0  0  0  0  0  0  0
    9.8920    4.7129   -8.1924 H   0  0  0  0  0  0  0  0  0  0  0  0
   11.9574    4.7922   -6.7533 H   0  0  0  0  0  0  0  0  0  0  0  0
   10.9512    5.2482   -5.3473 H   0  0  0  0  0  0  0  0  0  0  0  0
   11.2156    6.8196   -7.8525 H   0  0  0  0  0  0  0  0  0  0  0  0
   11.9375    7.1453   -6.4049 H   0  0  0  0  0  0  0  0  0  0  0  0
   10.2959    7.2403   -6.5354 H   0  0  0  0  0  0  0  0  0  0  0  0
   10.9245   -0.9053   -3.3935 H   0  0  0  0  0  0  0  0  0  0  0  0
   10.9079   -1.3390   -0.9764 H   0  0  0  0  0  0  0  0  0  0  0  0
    8.8962   -0.9006    0.3789 H   0  0  0  0  0  0  0  0  0  0  0  0
  1  2  1  0  0  0  0
  1 26  1  0  0  0  0
  1 27  1  0  0  0  0
  1 28  1  0  0  0  0
  2  3  2  0  0  0  0
  2  4  1  0  0  0  0
  4  5  1  0  0  0  0
  4 29  1  0  0  0  0
  5  6  2  0  0  0  0
  5  9  1  0  0  0  0
  6  7  1  0  0  0  0
  7  8  2  0  0  0  0
  7 10  1  0  0  0  0
  8  9  1  0  0  0  0
  8 30  1  0  0  0  0
 10 11  2  0  0  0  0
 10 25  1  0  0  0  0
 11 12  1  0  0  0  0
 11 31  1  0  0  0  0
 12 13  1  0  0  0  0
 12 23  2  0  0  0  0
 13 14  1  0  0  0  0
 13 32  1  0  0  0  0
 14 15  2  0  0  0  0
 14 16  1  0  0  0  0
 16 17  1  0  0  0  0
 16 18  1  0  0  0  0
 16 33  1  6  0  0  0
 17 34  1  0  0  0  0
 17 35  1  0  0  0  0
 17 36  1  0  0  0  0
 18 19  1  0  0  0  0
 18 37  1  0  0  0  0
 18 38  1  0  0  0  0
 19 20  1  0  0  0  0
 19 39  1  0  0  0  0
 19 40  1  0  0  0  0
 20 21  1  0  0  0  0
 20 41  1  0  0  0  0
 20 42  1  0  0  0  0
 21 22  1  0  0  0  0
 21 43  1  0  0  0  0
 21 44  1  0  0  0  0
 22 45  1  0  0  0  0
 22 46  1  0  0  0  0
 22 47  1  0  0  0  0
 23 24  1  0  0  0  0
 23 48  1  0  0  0  0
 24 25  2  0  0  0  0
 24 49  1  0  0  0  0
 25 50  1  0  0  0  0
M  CHG  2  17   1  22   1
M  END
$$$$
Target_lig_699
 OpenBabel04172516573D

 45 47  0  0  1  0  0  0  0  0999 V2000
    1.9989   -2.7709   -2.5992 C   0  0  0  0  0  0  0  0  0  0  0  0
    3.2155   -2.4506   -1.7701 C   0  0  0  0  0  0  0  0  0  0  0  0
    3.5016   -3.1354   -0.7947 O   0  0  0  0  0  0  0  0  0  0  0  0
    3.8970   -1.3567   -2.2581 N   0  0  0  0  0  0  0  0  0  0  0  0
    5.0467   -0.9049   -1.6735 C   0  0  0  0  0  0  0  0  0  0  0  0
    5.7780   -1.4779   -0.7588 N   0  0  0  0  0  0  0  0  0  0  0  0
    6.8726   -0.6850   -0.4476 C   0  0  0  0  0  0  0  0  0  0  0  0
    6.9051    0.5225   -1.1190 C   0  0  0  0  0  0  0  0  0  0  0  0
    5.5952    0.6072   -2.2359 S   0  0  0  0  0  0  0  0  0  0  0  0
    7.8967   -1.1875    0.4686 C   0  0  0  0  0  0  0  0  0  0  0  0
    7.8206   -2.5365    0.8623 C   0  0  0  0  0  0  0  0  0  0  0  0
    8.8103   -3.1364    1.6454 C   0  0  0  0  0  0  0  0  0  0  0  0
    8.7986   -4.5111    1.9963 N   0  0  0  0  0  0  0  0  0  0  0  0
    7.7823   -5.4057    1.7232 C   0  0  0  0  0  0  0  0  0  0  0  0
    6.6802   -5.1563    1.2381 O   0  0  0  0  0  0  0  0  0  0  0  0
    8.0142   -6.8470    2.1682 C   0  0  1  0  0  0  0  0  0  0  0  0
    6.8283   -7.2665    3.0064 N   0  3  0  0  0  0  0  0  0  0  0  0
    8.0903   -7.7373    0.9195 C   0  0  0  0  0  0  0  0  0  0  0  0
    8.2085   -9.1892    1.2528 C   0  0  0  0  0  0  0  0  0  0  0  0
    8.8099  -10.2005    0.5436 C   0  0  0  0  0  0  0  0  0  0  0  0
    8.5660  -11.3449    1.2599 N   0  0  0  0  0  0  0  0  0  0  0  0
    7.8404  -10.9862    2.3595 C   0  0  0  0  0  0  0  0  0  0  0  0
    7.6108   -9.6896    2.3930 N   0  0  0  0  0  0  0  0  0  0  0  0
    9.8860   -2.3534    2.0702 C   0  0  0  0  0  0  0  0  0  0  0  0
    9.9614   -1.0014    1.7185 C   0  0  0  0  0  0  0  0  0  0  0  0
    8.9727   -0.4193    0.9191 C   0  0  0  0  0  0  0  0  0  0  0  0
    1.3271   -3.4180   -2.0206 H   0  0  0  0  0  0  0  0  0  0  0  0
    2.3025   -3.2932   -3.5076 H   0  0  0  0  0  0  0  0  0  0  0  0
    1.4518   -1.8596   -2.8544 H   0  0  0  0  0  0  0  0  0  0  0  0
    3.5239   -0.8063   -3.0164 H   0  0  0  0  0  0  0  0  0  0  0  0
    7.6236    1.3276   -1.0608 H   0  0  0  0  0  0  0  0  0  0  0  0
    6.9694   -3.1071    0.5038 H   0  0  0  0  0  0  0  0  0  0  0  0
    9.6189   -4.8233    2.5057 H   0  0  0  0  0  0  0  0  0  0  0  0
    8.8973   -6.9480    2.8064 H   0  0  0  0  0  0  0  0  0  0  0  0
    5.9614   -7.0267    2.4998 H   0  0  0  0  0  0  0  0  0  0  0  0
    6.7920   -6.8141    3.9242 H   0  0  0  0  0  0  0  0  0  0  0  0
    6.8518   -8.3010    3.1223 H   0  0  0  0  0  0  0  0  0  0  0  0
    8.9384   -7.4317    0.2968 H   0  0  0  0  0  0  0  0  0  0  0  0
    7.1901   -7.6090    0.3030 H   0  0  0  0  0  0  0  0  0  0  0  0
    9.3543  -10.2247   -0.3940 H   0  0  0  0  0  0  0  0  0  0  0  0
    8.8536  -12.2827    1.0136 H   0  0  0  0  0  0  0  0  0  0  0  0
    7.5054  -11.7163    3.0884 H   0  0  0  0  0  0  0  0  0  0  0  0
   10.6863   -2.7698    2.6774 H   0  0  0  0  0  0  0  0  0  0  0  0
   10.8012   -0.3959    2.0579 H   0  0  0  0  0  0  0  0  0  0  0  0
    9.0706    0.6295    0.6535 H   0  0  0  0  0  0  0  0  0  0  0  0
  1  2  1  0  0  0  0
  1 27  1  0  0  0  0
  1 28  1  0  0  0  0
  1 29  1  0  0  0  0
  2  3  2  0  0  0  0
  2  4  1  0  0  0  0
  4  5  1  0  0  0  0
  4 30  1  0  0  0  0
  5  6  2  0  0  0  0
  5  9  1  0  0  0  0
  6  7  1  0  0  0  0
  7  8  2  0  0  0  0
  7 10  1  0  0  0  0
  8  9  1  0  0  0  0
  8 31  1  0  0  0  0
 10 11  2  0  0  0  0
 10 26  1  0  0  0  0
 11 12  1  0  0  0  0
 11 32  1  0  0  0  0
 12 13  1  0  0  0  0
 12 24  2  0  0  0  0
 13 14  1  0  0  0  0
 13 33  1  0  0  0  0
 14 15  2  0  0  0  0
 14 16  1  0  0  0  0
 16 17  1  0  0  0  0
 16 18  1  0  0  0  0
 16 34  1  1  0  0  0
 17 35  1  0  0  0  0
 17 36  1  0  0  0  0
 17 37  1  0  0  0  0
 18 19  1  0  0  0  0
 18 38  1  0  0  0  0
 18 39  1  0  0  0  0
 19 20  2  0  0  0  0
 19 23  1  0  0  0  0
 20 21  1  0  0  0  0
 20 40  1  0  0  0  0
 21 22  1  0  0  0  0
 21 41  1  0  0  0  0
 22 23  2  0  0  0  0
 22 42  1  0  0  0  0
 24 25  1  0  0  0  0
 24 43  1  0  0  0  0
 25 26  2  0  0  0  0
 25 44  1  0  0  0  0
 26 45  1  0  0  0  0
M  CHG  1  17   1
M  END
$$$$
Target_lig_700
 OpenBabel04172516573D

 36 38  0  0  0  0  0  0  0  0999 V2000
    3.7018    0.4230   -0.0675 C   0  0  0  0  0  0  0  0  0  0  0  0
    2.2547    0.0177   -0.0345 C   0  0  0  0  0  0  0  0  0  0  0  0
    1.3321    1.0097   -0.0611 N   0  0  0  0  0  0  0  0  0  0  0  0
    0.0484    0.5846   -0.0326 C   0  0  0  0  0  0  0  0  0  0  0  0
   -0.3791   -0.7356    0.0106 C   0  0  0  0  0  0  0  0  0  0  0  0
    0.6171   -1.7315    0.0408 C   0  0  0  0  0  0  0  0  0  0  0  0
    1.9497   -1.3384    0.0167 C   0  0  0  0  0  0  0  0  0  0  0  0
   -1.8054   -0.7993    0.0211 C   0  0  0  0  0  0  0  0  0  0  0  0
   -2.4214    0.4418   -0.0177 C   0  0  0  0  0  0  0  0  0  0  0  0
   -1.2558    1.6948   -0.0617 S   0  0  0  0  0  0  0  0  0  0  0  0
   -3.8681    0.6667   -0.0273 C   0  0  0  0  0  0  0  0  0  0  0  0
   -4.6343   -0.2971    0.0017 O   0  0  0  0  0  0  0  0  0  0  0  0
   -4.3225    1.9804   -0.1163 N   0  0  0  0  0  0  0  0  0  0  0  0
   -5.6876    2.3660   -0.1084 C   0  0  0  0  0  0  0  0  0  0  0  0
   -6.7087    1.5196    0.3411 C   0  0  0  0  0  0  0  0  0  0  0  0
   -8.0495    1.8959    0.2731 C   0  0  0  0  0  0  0  0  0  0  0  0
   -8.3926    3.1435   -0.2281 C   0  0  0  0  0  0  0  0  0  0  0  0
   -7.3933    4.0356   -0.6427 C   0  0  0  0  0  0  0  0  0  0  0  0
   -6.0384    3.6409   -0.5702 C   0  0  0  0  0  0  0  0  0  0  0  0
   -7.7700    5.3981   -1.1700 C   0  0  0  0  0  0  0  0  0  0  0  0
   -9.1143    5.6247   -1.1839 F   0  0  0  0  0  0  0  0  0  0  0  0
   -7.2315    6.4080   -0.4329 F   0  0  0  0  0  0  0  0  0  0  0  0
   -7.3470    5.5990   -2.4483 F   0  0  0  0  0  0  0  0  0  0  0  0
   -2.4873   -1.9655    0.0670 N   0  0  0  0  0  0  0  0  0  0  0  0
    3.8057    1.5112   -0.0961 H   0  0  0  0  0  0  0  0  0  0  0  0
    4.1865    0.0071   -0.9571 H   0  0  0  0  0  0  0  0  0  0  0  0
    4.2175    0.0512    0.8244 H   0  0  0  0  0  0  0  0  0  0  0  0
    0.3518   -2.7826    0.0833 H   0  0  0  0  0  0  0  0  0  0  0  0
    2.7353   -2.0875    0.0371 H   0  0  0  0  0  0  0  0  0  0  0  0
   -3.6277    2.6893   -0.3204 H   0  0  0  0  0  0  0  0  0  0  0  0
   -6.4975    0.5452    0.7706 H   0  0  0  0  0  0  0  0  0  0  0  0
   -8.8183    1.2054    0.6108 H   0  0  0  0  0  0  0  0  0  0  0  0
   -9.4448    3.4176   -0.2881 H   0  0  0  0  0  0  0  0  0  0  0  0
   -5.2707    4.3339   -0.9102 H   0  0  0  0  0  0  0  0  0  0  0  0
   -2.0660   -2.8726   -0.0834 H   0  0  0  0  0  0  0  0  0  0  0  0
   -3.5098   -1.9593   -0.0143 H   0  0  0  0  0  0  0  0  0  0  0  0
  1  2  1  0  0  0  0
  1 25  1  0  0  0  0
  1 26  1  0  0  0  0
  1 27  1  0  0  0  0
  2  3  2  0  0  0  0
  2  7  1  0  0  0  0
  3  4  1  0  0  0  0
  4  5  2  0  0  0  0
  4 10  1  0  0  0  0
  5  6  1  0  0  0  0
  5  8  1  0  0  0  0
  6  7  2  0  0  0  0
  6 28  1  0  0  0  0
  7 29  1  0  0  0  0
  8  9  2  0  0  0  0
  8 24  1  0  0  0  0
  9 10  1  0  0  0  0
  9 11  1  0  0  0  0
 11 12  2  0  0  0  0
 11 13  1  0  0  0  0
 13 14  1  0  0  0  0
 13 30  1  0  0  0  0
 14 15  2  0  0  0  0
 14 19  1  0  0  0  0
 15 16  1  0  0  0  0
 15 31  1  0  0  0  0
 16 17  2  0  0  0  0
 16 32  1  0  0  0  0
 17 18  1  0  0  0  0
 17 33  1  0  0  0  0
 18 19  2  0  0  0  0
 18 20  1  0  0  0  0
 19 34  1  0  0  0  0
 20 21  1  0  0  0  0
 20 22  1  0  0  0  0
 20 23  1  0  0  0  0
 24 35  1  0  0  0  0
 24 36  1  0  0  0  0
M  END
$$$$
Target_lig_701
 OpenBabel04172516573D

 41 43  0  0  0  0  0  0  0  0999 V2000
    3.2930   -0.9617   -0.3239 C   0  0  0  0  0  0  0  0  0  0  0  0
    2.5405    0.1759    0.0891 O   0  0  0  0  0  0  0  0  0  0  0  0
    3.2660    1.3150    0.3174 C   0  0  0  0  0  0  0  0  0  0  0  0
    4.3689    1.7627   -0.4202 C   0  0  0  0  0  0  0  0  0  0  0  0
    4.9880    2.9667   -0.0540 C   0  0  0  0  0  0  0  0  0  0  0  0
    4.5679    3.7157    1.0307 C   0  0  0  0  0  0  0  0  0  0  0  0
    3.4605    3.2863    1.7521 C   0  0  0  0  0  0  0  0  0  0  0  0
    2.7934    2.0938    1.3754 C   0  0  0  0  0  0  0  0  0  0  0  0
    3.1102    4.1167    2.8156 C   0  0  0  0  0  0  0  0  0  0  0  0
    3.7862    5.2348    3.1200 N   0  0  0  0  0  0  0  0  0  0  0  0
    4.8474    5.5555    2.3723 C   0  0  0  0  0  0  0  0  0  0  0  0
    5.2489    4.8283    1.3311 N   0  0  0  0  0  0  0  0  0  0  0  0
    5.5221    6.7191    2.6595 N   0  0  0  0  0  0  0  0  0  0  0  0
    5.1693    7.4821    3.8519 C   0  0  0  0  0  0  0  0  0  0  0  0
    5.1291    8.9761    3.4884 C   0  0  0  0  0  0  0  0  0  0  0  0
    6.4269    9.3929    2.8301 N   0  3  0  0  0  0  0  0  0  0  0  0
    6.7677    8.5498    1.6182 C   0  0  0  0  0  0  0  0  0  0  0  0
    6.7708    7.0502    1.9790 C   0  0  0  0  0  0  0  0  0  0  0  0
    1.9860    3.8772    3.6079 N   0  0  0  0  0  0  0  0  0  0  0  0
    4.7632    1.0591   -1.5269 O   0  0  0  0  0  0  0  0  0  0  0  0
    6.1592    1.0876   -1.8117 C   0  0  0  0  0  0  0  0  0  0  0  0
    2.6847   -1.8517   -0.1340 H   0  0  0  0  0  0  0  0  0  0  0  0
    4.2215   -1.0670    0.2488 H   0  0  0  0  0  0  0  0  0  0  0  0
    3.4881   -0.9337   -1.3991 H   0  0  0  0  0  0  0  0  0  0  0  0
    5.8106    3.3658   -0.6405 H   0  0  0  0  0  0  0  0  0  0  0  0
    1.9096    1.7601    1.9195 H   0  0  0  0  0  0  0  0  0  0  0  0
    5.9214    7.3035    4.6297 H   0  0  0  0  0  0  0  0  0  0  0  0
    4.1952    7.2182    4.2776 H   0  0  0  0  0  0  0  0  0  0  0  0
    5.0052    9.6028    4.3754 H   0  0  0  0  0  0  0  0  0  0  0  0
    4.3318    9.1912    2.7690 H   0  0  0  0  0  0  0  0  0  0  0  0
    7.1903    9.3268    3.5149 H   0  0  0  0  0  0  0  0  0  0  0  0
    6.3601   10.3792    2.5494 H   0  0  0  0  0  0  0  0  0  0  0  0
    7.7485    8.8837    1.2674 H   0  0  0  0  0  0  0  0  0  0  0  0
    6.0104    8.7764    0.8603 H   0  0  0  0  0  0  0  0  0  0  0  0
    7.6138    6.8337    2.6471 H   0  0  0  0  0  0  0  0  0  0  0  0
    6.9373    6.4834    1.0566 H   0  0  0  0  0  0  0  0  0  0  0  0
    1.9460    2.9273    3.9606 H   0  0  0  0  0  0  0  0  0  0  0  0
    1.9610    4.5644    4.3536 H   0  0  0  0  0  0  0  0  0  0  0  0
    6.3566    0.3537   -2.5979 H   0  0  0  0  0  0  0  0  0  0  0  0
    6.7458    0.8077   -0.9297 H   0  0  0  0  0  0  0  0  0  0  0  0
    6.4686    2.0648   -2.1950 H   0  0  0  0  0  0  0  0  0  0  0  0
  1  2  1  0  0  0  0
  1 22  1  0  0  0  0
  1 23  1  0  0  0  0
  1 24  1  0  0  0  0
  2  3  1  0  0  0  0
  3  4  2  0  0  0  0
  3  8  1  0  0  0  0
  4  5  1  0  0  0  0
  4 20  1  0  0  0  0
  5  6  2  0  0  0  0
  5 25  1  0  0  0  0
  6  7  1  0  0  0  0
  6 12  1  0  0  0  0
  7  8  2  0  0  0  0
  7  9  1  0  0  0  0
  8 26  1  0  0  0  0
  9 10  2  0  0  0  0
  9 19  1  0  0  0  0
 10 11  1  0  0  0  0
 11 12  2  0  0  0  0
 11 13  1  0  0  0  0
 13 14  1  0  0  0  0
 13 18  1  0  0  0  0
 14 15  1  0  0  0  0
 14 27  1  0  0  0  0
 14 28  1  0  0  0  0
 15 16  1  0  0  0  0
 15 29  1  0  0  0  0
 15 30  1  0  0  0  0
 16 17  1  0  0  0  0
 16 31  1  0  0  0  0
 16 32  1  0  0  0  0
 17 18  1  0  0  0  0
 17 33  1  0  0  0  0
 17 34  1  0  0  0  0
 18 35  1  0  0  0  0
 18 36  1  0  0  0  0
 19 37  1  0  0  0  0
 19 38  1  0  0  0  0
 20 21  1  0  0  0  0
 21 39  1  0  0  0  0
 21 40  1  0  0  0  0
 21 41  1  0  0  0  0
M  CHG  1  16   1
M  END
$$$$
Target_lig_702
 OpenBabel04172516573D

 49 51  0  0  0  0  0  0  0  0999 V2000
    0.9683   -0.7683   -0.2373 C   0  0  0  0  0  0  0  0  0  0  0  0
    2.4673   -1.0218   -0.1802 C   0  0  0  0  0  0  0  0  0  0  0  0
    3.1496   -0.8295   -1.5310 C   0  0  0  0  0  0  0  0  0  0  0  0
    2.5139   -0.4905   -2.5275 O   0  0  0  0  0  0  0  0  0  0  0  0
    4.5248   -1.0334   -1.5840 N   0  0  0  0  0  0  0  0  0  0  0  0
    5.3957   -1.4155   -0.4703 C   0  0  0  0  0  0  0  0  0  0  0  0
    6.5767   -0.4316   -0.3196 C   0  0  0  0  0  0  0  0  0  0  0  0
    7.2337   -0.0890   -1.5989 N   0  0  0  0  0  0  0  0  0  0  0  0
    6.3477    0.1492   -2.7584 C   0  0  0  0  0  0  0  0  0  0  0  0
    5.2174   -0.8892   -2.8598 C   0  0  0  0  0  0  0  0  0  0  0  0
    8.5397   -0.4587   -1.8040 C   0  0  0  0  0  0  0  0  0  0  0  0
    9.0767   -1.5439   -1.2135 N   0  0  0  0  0  0  0  0  0  0  0  0
   10.3829   -1.7889   -1.4319 C   0  0  0  0  0  0  0  0  0  0  0  0
   10.8704   -2.9733   -0.8922 N   0  0  0  0  0  0  0  0  0  0  0  0
   11.2008   -0.9558   -2.2191 C   0  0  0  0  0  0  0  0  0  0  0  0
   12.5804   -1.1546   -2.4835 C   0  0  0  0  0  0  0  0  0  0  0  0
   13.3162   -0.2598   -3.2785 C   0  0  0  0  0  0  0  0  0  0  0  0
   14.6581   -0.4093   -3.4857 O   0  0  0  0  0  0  0  0  0  0  0  0
   15.1726   -1.7379   -3.5122 C   0  0  0  0  0  0  0  0  0  0  0  0
   12.6707    0.8633   -3.8162 C   0  0  0  0  0  0  0  0  0  0  0  0
   13.1851    1.8504   -4.6123 O   0  0  0  0  0  0  0  0  0  0  0  0
   14.5437    1.7736   -5.0294 C   0  0  0  0  0  0  0  0  0  0  0  0
   11.3064    1.0645   -3.5585 C   0  0  0  0  0  0  0  0  0  0  0  0
   10.5761    0.1652   -2.7763 C   0  0  0  0  0  0  0  0  0  0  0  0
    9.2738    0.3701   -2.5515 N   0  3  0  0  0  0  0  0  0  0  0  0
    0.5341   -0.8401    0.7666 H   0  0  0  0  0  0  0  0  0  0  0  0
    0.4679   -1.5018   -0.8761 H   0  0  0  0  0  0  0  0  0  0  0  0
    0.7469    0.2281   -0.6323 H   0  0  0  0  0  0  0  0  0  0  0  0
    2.6406   -2.0490    0.1583 H   0  0  0  0  0  0  0  0  0  0  0  0
    2.9127   -0.3241    0.5338 H   0  0  0  0  0  0  0  0  0  0  0  0
    5.7702   -2.4197   -0.6922 H   0  0  0  0  0  0  0  0  0  0  0  0
    4.8472   -1.4692    0.4730 H   0  0  0  0  0  0  0  0  0  0  0  0
    7.2815   -0.8202    0.4242 H   0  0  0  0  0  0  0  0  0  0  0  0
    6.1866    0.5075    0.0948 H   0  0  0  0  0  0  0  0  0  0  0  0
    6.9083    0.1496   -3.7008 H   0  0  0  0  0  0  0  0  0  0  0  0
    5.9130    1.1483   -2.6434 H   0  0  0  0  0  0  0  0  0  0  0  0
    5.6274   -1.8727   -3.1135 H   0  0  0  0  0  0  0  0  0  0  0  0
    4.5338   -0.6030   -3.6648 H   0  0  0  0  0  0  0  0  0  0  0  0
   10.1529   -3.4371   -0.3393 H   0  0  0  0  0  0  0  0  0  0  0  0
   11.7363   -2.8820   -0.3705 H   0  0  0  0  0  0  0  0  0  0  0  0
   13.0767   -2.0140   -2.0393 H   0  0  0  0  0  0  0  0  0  0  0  0
   16.1666   -1.7003   -3.9686 H   0  0  0  0  0  0  0  0  0  0  0  0
   14.5481   -2.3994   -4.1222 H   0  0  0  0  0  0  0  0  0  0  0  0
   15.2866   -2.1282   -2.4965 H   0  0  0  0  0  0  0  0  0  0  0  0
   14.7190    2.5921   -5.7348 H   0  0  0  0  0  0  0  0  0  0  0  0
   14.7504    0.8417   -5.5648 H   0  0  0  0  0  0  0  0  0  0  0  0
   15.2198    1.9217   -4.1818 H   0  0  0  0  0  0  0  0  0  0  0  0
   10.8310    1.9432   -3.9906 H   0  0  0  0  0  0  0  0  0  0  0  0
    8.8090    1.2015   -2.8929 H   0  0  0  0  0  0  0  0  0  0  0  0
  1  2  1  0  0  0  0
  1 26  1  0  0  0  0
  1 27  1  0  0  0  0
  1 28  1  0  0  0  0
  2  3  1  0  0  0  0
  2 29  1  0  0  0  0
  2 30  1  0  0  0  0
  3  4  2  0  0  0  0
  3  5  1  0  0  0  0
  5  6  1  0  0  0  0
  5 10  1  0  0  0  0
  6  7  1  0  0  0  0
  6 31  1  0  0  0  0
  6 32  1  0  0  0  0
  7  8  1  0  0  0  0
  7 33  1  0  0  0  0
  7 34  1  0  0  0  0
  8  9  1  0  0  0  0
  8 11  1  0  0  0  0
  9 10  1  0  0  0  0
  9 35  1  0  0  0  0
  9 36  1  0  0  0  0
 10 37  1  0  0  0  0
 10 38  1  0  0  0  0
 11 12  2  0  0  0  0
 11 25  1  0  0  0  0
 12 13  1  0  0  0  0
 13 14  1  0  0  0  0
 13 15  2  0  0  0  0
 14 39  1  0  0  0  0
 14 40  1  0  0  0  0
 15 16  1  0  0  0  0
 15 24  1  0  0  0  0
 16 17  2  0  0  0  0
 16 41  1  0  0  0  0
 17 18  1  0  0  0  0
 17 20  1  0  0  0  0
 18 19  1  0  0  0  0
 19 42  1  0  0  0  0
 19 43  1  0  0  0  0
 19 44  1  0  0  0  0
 20 21  1  0  0  0  0
 20 23  2  0  0  0  0
 21 22  1  0  0  0  0
 22 45  1  0  0  0  0
 22 46  1  0  0  0  0
 22 47  1  0  0  0  0
 23 24  1  0  0  0  0
 23 48  1  0  0  0  0
 24 25  2  0  0  0  0
 25 49  1  0  0  0  0
M  CHG  1  25   1
M  END
$$$$
Target_lig_703
 OpenBabel04172516573D

 52 54  0  0  0  0  0  0  0  0999 V2000
    3.3118   -0.5479   -1.0264 C   0  0  0  0  0  0  0  0  0  0  0  0
    2.5562   -0.0457    0.0736 O   0  0  0  0  0  0  0  0  0  0  0  0
    3.0651    1.0468    0.7272 C   0  0  0  0  0  0  0  0  0  0  0  0
    3.8887    1.9852    0.1038 C   0  0  0  0  0  0  0  0  0  0  0  0
    4.3563    3.0949    0.8154 C   0  0  0  0  0  0  0  0  0  0  0  0
    5.1434    3.9817    0.1997 N   0  3  0  0  0  0  0  0  0  0  0  0
    5.6365    5.0494    0.8218 C   0  0  0  0  0  0  0  0  0  0  0  0
    5.3813    5.2959    2.1216 N   0  0  0  0  0  0  0  0  0  0  0  0
    4.5751    4.4319    2.7706 C   0  0  0  0  0  0  0  0  0  0  0  0
    4.2530    4.7773    4.0787 N   0  0  0  0  0  0  0  0  0  0  0  0
    4.0190    3.2902    2.1599 C   0  0  0  0  0  0  0  0  0  0  0  0
    3.1625    2.3424    2.7777 C   0  0  0  0  0  0  0  0  0  0  0  0
    2.6748    1.2392    2.0639 C   0  0  0  0  0  0  0  0  0  0  0  0
    1.8676    0.2739    2.6055 O   0  0  0  0  0  0  0  0  0  0  0  0
    1.0672    0.6465    3.7220 C   0  0  0  0  0  0  0  0  0  0  0  0
    6.5109    5.8089    0.0826 N   0  0  0  0  0  0  0  0  0  0  0  0
    7.5904    6.5400    0.7795 C   0  0  0  0  0  0  0  0  0  0  0  0
    7.4105    8.0690    0.7320 C   0  0  0  0  0  0  0  0  0  0  0  0
    7.1349    8.5143   -0.6379 N   0  0  0  0  0  0  0  0  0  0  0  0
    5.9565    7.8794   -1.2284 C   0  0  0  0  0  0  0  0  0  0  0  0
    6.0973    6.3466   -1.2330 C   0  0  0  0  0  0  0  0  0  0  0  0
    7.8573    9.4270   -1.3937 C   0  0  0  0  0  0  0  0  0  0  0  0
    7.5422    9.6571   -2.5637 O   0  0  0  0  0  0  0  0  0  0  0  0
    9.0956   10.0890   -0.7836 C   0  0  0  0  0  0  0  0  0  0  0  0
   10.3214    9.2086   -1.0169 C   0  0  0  0  0  0  0  0  0  0  0  0
    9.3250   11.4719   -1.3979 C   0  0  0  0  0  0  0  0  0  0  0  0
    2.8688   -1.4973   -1.3405 H   0  0  0  0  0  0  0  0  0  0  0  0
    4.3510   -0.7354   -0.7349 H   0  0  0  0  0  0  0  0  0  0  0  0
    3.2654    0.1339   -1.8818 H   0  0  0  0  0  0  0  0  0  0  0  0
    4.1529    1.8714   -0.9403 H   0  0  0  0  0  0  0  0  0  0  0  0
    5.4542    3.8345   -0.7488 H   0  0  0  0  0  0  0  0  0  0  0  0
    4.7579    5.6129    4.3658 H   0  0  0  0  0  0  0  0  0  0  0  0
    4.3556    4.0310    4.7590 H   0  0  0  0  0  0  0  0  0  0  0  0
    2.8979    2.4736    3.8234 H   0  0  0  0  0  0  0  0  0  0  0  0
    0.3438   -0.1552    3.8987 H   0  0  0  0  0  0  0  0  0  0  0  0
    0.5070    1.5661    3.5213 H   0  0  0  0  0  0  0  0  0  0  0  0
    1.6782    0.7471    4.6243 H   0  0  0  0  0  0  0  0  0  0  0  0
    8.5258    6.2889    0.2633 H   0  0  0  0  0  0  0  0  0  0  0  0
    7.7180    6.2108    1.8174 H   0  0  0  0  0  0  0  0  0  0  0  0
    8.2954    8.5471    1.1512 H   0  0  0  0  0  0  0  0  0  0  0  0
    6.5495    8.3651    1.3431 H   0  0  0  0  0  0  0  0  0  0  0  0
    5.7702    8.2277   -2.2492 H   0  0  0  0  0  0  0  0  0  0  0  0
    5.0921    8.1768   -0.6226 H   0  0  0  0  0  0  0  0  0  0  0  0
    6.8600    6.0548   -1.9646 H   0  0  0  0  0  0  0  0  0  0  0  0
    5.1488    5.9098   -1.5691 H   0  0  0  0  0  0  0  0  0  0  0  0
    8.9459   10.2469    0.2874 H   0  0  0  0  0  0  0  0  0  0  0  0
   10.5096    9.0711   -2.0883 H   0  0  0  0  0  0  0  0  0  0  0  0
   10.1943    8.2145   -0.5779 H   0  0  0  0  0  0  0  0  0  0  0  0
   11.2161    9.6625   -0.5769 H   0  0  0  0  0  0  0  0  0  0  0  0
    9.5127   11.4141   -2.4756 H   0  0  0  0  0  0  0  0  0  0  0  0
   10.1851   11.9645   -0.9317 H   0  0  0  0  0  0  0  0  0  0  0  0
    8.4479   12.1104   -1.2461 H   0  0  0  0  0  0  0  0  0  0  0  0
  1  2  1  0  0  0  0
  1 27  1  0  0  0  0
  1 28  1  0  0  0  0
  1 29  1  0  0  0  0
  2  3  1  0  0  0  0
  3  4  2  0  0  0  0
  3 13  1  0  0  0  0
  4  5  1  0  0  0  0
  4 30  1  0  0  0  0
  5  6  2  0  0  0  0
  5 11  1  0  0  0  0
  6  7  1  0  0  0  0
  6 31  1  0  0  0  0
  7  8  2  0  0  0  0
  7 16  1  0  0  0  0
  8  9  1  0  0  0  0
  9 10  1  0  0  0  0
  9 11  2  0  0  0  0
 10 32  1  0  0  0  0
 10 33  1  0  0  0  0
 11 12  1  0  0  0  0
 12 13  2  0  0  0  0
 12 34  1  0  0  0  0
 13 14  1  0  0  0  0
 14 15  1  0  0  0  0
 15 35  1  0  0  0  0
 15 36  1  0  0  0  0
 15 37  1  0  0  0  0
 16 17  1  0  0  0  0
 16 21  1  0  0  0  0
 17 18  1  0  0  0  0
 17 38  1  0  0  0  0
 17 39  1  0  0  0  0
 18 19  1  0  0  0  0
 18 40  1  0  0  0  0
 18 41  1  0  0  0  0
 19 20  1  0  0  0  0
 19 22  1  0  0  0  0
 20 21  1  0  0  0  0
 20 42  1  0  0  0  0
 20 43  1  0  0  0  0
 21 44  1  0  0  0  0
 21 45  1  0  0  0  0
 22 23  2  0  0  0  0
 22 24  1  0  0  0  0
 24 25  1  0  0  0  0
 24 26  1  0  0  0  0
 24 46  1  0  0  0  0
 25 47  1  0  0  0  0
 25 48  1  0  0  0  0
 25 49  1  0  0  0  0
 26 50  1  0  0  0  0
 26 51  1  0  0  0  0
 26 52  1  0  0  0  0
M  CHG  1   6   1
M  END
$$$$
Target_lig_704
 OpenBabel04172516573D

 52 54  0  0  0  0  0  0  0  0999 V2000
    1.5775    0.4725    1.3809 C   0  0  0  0  0  0  0  0  0  0  0  0
    2.7920    0.2030    0.5025 C   0  0  0  0  0  0  0  0  0  0  0  0
    3.4197    1.5083    0.0056 C   0  0  0  0  0  0  0  0  0  0  0  0
    4.6265    1.2908   -0.9000 C   0  0  0  0  0  0  0  0  0  0  0  0
    5.0236    0.1622   -1.1848 O   0  0  0  0  0  0  0  0  0  0  0  0
    5.2536    2.4269   -1.4029 N   0  0  0  0  0  0  0  0  0  0  0  0
    4.8479    3.8148   -1.1821 C   0  0  0  0  0  0  0  0  0  0  0  0
    4.5623    4.5232   -2.5197 C   0  0  0  0  0  0  0  0  0  0  0  0
    5.6158    4.3214   -3.5430 N   0  0  0  0  0  0  0  0  0  0  0  0
    6.1794    2.9550   -3.6461 C   0  0  0  0  0  0  0  0  0  0  0  0
    6.4177    2.2854   -2.2765 C   0  0  0  0  0  0  0  0  0  0  0  0
    6.4068    5.3968   -3.8771 C   0  0  0  0  0  0  0  0  0  0  0  0
    6.6735    6.3799   -2.9961 N   0  0  0  0  0  0  0  0  0  0  0  0
    7.3471    7.4531   -3.4493 C   0  0  0  0  0  0  0  0  0  0  0  0
    7.6918    8.3944   -2.4865 N   0  0  0  0  0  0  0  0  0  0  0  0
    7.7542    7.5978   -4.7878 C   0  0  0  0  0  0  0  0  0  0  0  0
    8.4450    8.7149   -5.3220 C   0  0  0  0  0  0  0  0  0  0  0  0
    8.8144    8.7816   -6.6744 C   0  0  0  0  0  0  0  0  0  0  0  0
    9.4821    9.8435   -7.2135 O   0  0  0  0  0  0  0  0  0  0  0  0
    9.8338   10.9473   -6.3889 C   0  0  0  0  0  0  0  0  0  0  0  0
    8.4861    7.7057   -7.5153 C   0  0  0  0  0  0  0  0  0  0  0  0
    8.7554    7.5496   -8.8498 O   0  0  0  0  0  0  0  0  0  0  0  0
    9.4953    8.5531   -9.5376 C   0  0  0  0  0  0  0  0  0  0  0  0
    7.7942    6.5992   -6.9931 C   0  0  0  0  0  0  0  0  0  0  0  0
    7.4350    6.5365   -5.6439 C   0  0  0  0  0  0  0  0  0  0  0  0
    6.7806    5.4758   -5.1533 N   0  3  0  0  0  0  0  0  0  0  0  0
    1.1406   -0.4690    1.7278 H   0  0  0  0  0  0  0  0  0  0  0  0
    0.8065    1.0195    0.8284 H   0  0  0  0  0  0  0  0  0  0  0  0
    1.8522    1.0631    2.2608 H   0  0  0  0  0  0  0  0  0  0  0  0
    2.4880   -0.4157   -0.3500 H   0  0  0  0  0  0  0  0  0  0  0  0
    3.5279   -0.3764    1.0708 H   0  0  0  0  0  0  0  0  0  0  0  0
    3.7385    2.1030    0.8691 H   0  0  0  0  0  0  0  0  0  0  0  0
    2.6661    2.0694   -0.5585 H   0  0  0  0  0  0  0  0  0  0  0  0
    5.6747    4.3085   -0.6589 H   0  0  0  0  0  0  0  0  0  0  0  0
    3.9674    3.8836   -0.5406 H   0  0  0  0  0  0  0  0  0  0  0  0
    4.3583    5.5854   -2.3375 H   0  0  0  0  0  0  0  0  0  0  0  0
    3.6376    4.1060   -2.9380 H   0  0  0  0  0  0  0  0  0  0  0  0
    7.1198    2.9516   -4.2111 H   0  0  0  0  0  0  0  0  0  0  0  0
    5.4634    2.3516   -4.2163 H   0  0  0  0  0  0  0  0  0  0  0  0
    7.2590    2.7676   -1.7632 H   0  0  0  0  0  0  0  0  0  0  0  0
    6.6858    1.2357   -2.4270 H   0  0  0  0  0  0  0  0  0  0  0  0
    7.3069    8.1404   -1.5781 H   0  0  0  0  0  0  0  0  0  0  0  0
    7.4716    9.3570   -2.7256 H   0  0  0  0  0  0  0  0  0  0  0  0
    8.6892    9.5343   -4.6507 H   0  0  0  0  0  0  0  0  0  0  0  0
   10.4679   11.6158   -6.9798 H   0  0  0  0  0  0  0  0  0  0  0  0
   10.4151   10.6321   -5.5171 H   0  0  0  0  0  0  0  0  0  0  0  0
    8.9399   11.5050   -6.0916 H   0  0  0  0  0  0  0  0  0  0  0  0
    9.6716    8.1949  -10.5569 H   0  0  0  0  0  0  0  0  0  0  0  0
   10.4783    8.7133   -9.0834 H   0  0  0  0  0  0  0  0  0  0  0  0
    8.9192    9.4810   -9.6133 H   0  0  0  0  0  0  0  0  0  0  0  0
    7.5473    5.7866   -7.6748 H   0  0  0  0  0  0  0  0  0  0  0  0
    6.4772    4.7219   -5.7581 H   0  0  0  0  0  0  0  0  0  0  0  0
  1  2  1  0  0  0  0
  1 27  1  0  0  0  0
  1 28  1  0  0  0  0
  1 29  1  0  0  0  0
  2  3  1  0  0  0  0
  2 30  1  0  0  0  0
  2 31  1  0  0  0  0
  3  4  1  0  0  0  0
  3 32  1  0  0  0  0
  3 33  1  0  0  0  0
  4  5  2  0  0  0  0
  4  6  1  0  0  0  0
  6  7  1  0  0  0  0
  6 11  1  0  0  0  0
  7  8  1  0  0  0  0
  7 34  1  0  0  0  0
  7 35  1  0  0  0  0
  8  9  1  0  0  0  0
  8 36  1  0  0  0  0
  8 37  1  0  0  0  0
  9 10  1  0  0  0  0
  9 12  1  0  0  0  0
 10 11  1  0  0  0  0
 10 38  1  0  0  0  0
 10 39  1  0  0  0  0
 11 40  1  0  0  0  0
 11 41  1  0  0  0  0
 12 13  2  0  0  0  0
 12 26  1  0  0  0  0
 13 14  1  0  0  0  0
 14 15  1  0  0  0  0
 14 16  2  0  0  0  0
 15 42  1  0  0  0  0
 15 43  1  0  0  0  0
 16 17  1  0  0  0  0
 16 25  1  0  0  0  0
 17 18  2  0  0  0  0
 17 44  1  0  0  0  0
 18 19  1  0  0  0  0
 18 21  1  0  0  0  0
 19 20  1  0  0  0  0
 20 45  1  0  0  0  0
 20 46  1  0  0  0  0
 20 47  1  0  0  0  0
 21 22  1  0  0  0  0
 21 24  2  0  0  0  0
 22 23  1  0  0  0  0
 23 48  1  0  0  0  0
 23 49  1  0  0  0  0
 23 50  1  0  0  0  0
 24 25  1  0  0  0  0
 24 51  1  0  0  0  0
 25 26  2  0  0  0  0
 26 52  1  0  0  0  0
M  CHG  1  26   1
M  END
$$$$
Target_lig_705
 OpenBabel04172516573D

 50 53  0  0  0  0  0  0  0  0999 V2000
    3.2498   -0.7591    1.0050 C   0  0  0  0  0  0  0  0  0  0  0  0
    2.5099    0.0861    0.1254 O   0  0  0  0  0  0  0  0  0  0  0  0
    3.1501    0.4789   -1.0217 C   0  0  0  0  0  0  0  0  0  0  0  0
    4.1189   -0.3062   -1.6452 C   0  0  0  0  0  0  0  0  0  0  0  0
    4.7407    0.1367   -2.8153 C   0  0  0  0  0  0  0  0  0  0  0  0
    5.6717   -0.6276   -3.3871 N   0  3  0  0  0  0  0  0  0  0  0  0
    6.3331   -0.2591   -4.4792 C   0  0  0  0  0  0  0  0  0  0  0  0
    6.1121    0.9310   -5.0719 N   0  0  0  0  0  0  0  0  0  0  0  0
    5.1591    1.7223   -4.5351 C   0  0  0  0  0  0  0  0  0  0  0  0
    4.8906    2.8955   -5.2303 N   0  0  0  0  0  0  0  0  0  0  0  0
    4.4191    1.3721   -3.3870 C   0  0  0  0  0  0  0  0  0  0  0  0
    3.4004    2.1439   -2.7701 C   0  0  0  0  0  0  0  0  0  0  0  0
    2.7557    1.6940   -1.6082 C   0  0  0  0  0  0  0  0  0  0  0  0
    1.7807    2.4006   -0.9555 O   0  0  0  0  0  0  0  0  0  0  0  0
    1.0073    3.3079   -1.7355 C   0  0  0  0  0  0  0  0  0  0  0  0
    7.3295   -1.1181   -4.8734 N   0  0  0  0  0  0  0  0  0  0  0  0
    8.5100   -0.5763   -5.5805 C   0  0  0  0  0  0  0  0  0  0  0  0
    8.5766   -1.0064   -7.0605 C   0  0  0  0  0  0  0  0  0  0  0  0
    8.3680   -2.4522   -7.1900 N   0  0  0  0  0  0  0  0  0  0  0  0
    7.1090   -2.9148   -6.6132 C   0  0  0  0  0  0  0  0  0  0  0  0
    7.0157   -2.5441   -5.1233 C   0  0  0  0  0  0  0  0  0  0  0  0
    9.2380   -3.3894   -7.7378 C   0  0  0  0  0  0  0  0  0  0  0  0
    8.9870   -4.5921   -7.7191 O   0  0  0  0  0  0  0  0  0  0  0  0
   10.4949   -2.9163   -8.3929 C   0  0  0  0  0  0  0  0  0  0  0  0
   10.6975   -3.2052   -9.8661 C   0  0  0  0  0  0  0  0  0  0  0  0
   11.5563   -3.8973   -8.8492 C   0  0  0  0  0  0  0  0  0  0  0  0
    2.7030   -0.8381    1.9483 H   0  0  0  0  0  0  0  0  0  0  0  0
    4.2386   -0.3368    1.2179 H   0  0  0  0  0  0  0  0  0  0  0  0
    3.3417   -1.7701    0.5939 H   0  0  0  0  0  0  0  0  0  0  0  0
    4.3830   -1.2744   -1.2340 H   0  0  0  0  0  0  0  0  0  0  0  0
    5.9713   -1.4939   -2.9607 H   0  0  0  0  0  0  0  0  0  0  0  0
    5.5315    3.0054   -6.0129 H   0  0  0  0  0  0  0  0  0  0  0  0
    4.8571    3.7346   -4.6593 H   0  0  0  0  0  0  0  0  0  0  0  0
    3.1337    3.1046   -3.2023 H   0  0  0  0  0  0  0  0  0  0  0  0
    0.1475    3.6208   -1.1349 H   0  0  0  0  0  0  0  0  0  0  0  0
    0.6250    2.8294   -2.6438 H   0  0  0  0  0  0  0  0  0  0  0  0
    1.5862    4.2044   -1.9781 H   0  0  0  0  0  0  0  0  0  0  0  0
    9.3938   -0.9727   -5.0640 H   0  0  0  0  0  0  0  0  0  0  0  0
    8.5773    0.5151   -5.5033 H   0  0  0  0  0  0  0  0  0  0  0  0
    9.5251   -0.6841   -7.4894 H   0  0  0  0  0  0  0  0  0  0  0  0
    7.7780   -0.5160   -7.6282 H   0  0  0  0  0  0  0  0  0  0  0  0
    6.9792   -3.9956   -6.7267 H   0  0  0  0  0  0  0  0  0  0  0  0
    6.3016   -2.4290   -7.1737 H   0  0  0  0  0  0  0  0  0  0  0  0
    7.7319   -3.1459   -4.5516 H   0  0  0  0  0  0  0  0  0  0  0  0
    6.0148   -2.8095   -4.7602 H   0  0  0  0  0  0  0  0  0  0  0  0
   10.9193   -1.9996   -8.0056 H   0  0  0  0  0  0  0  0  0  0  0  0
   11.1530   -2.4410  -10.4835 H   0  0  0  0  0  0  0  0  0  0  0  0
    9.9699   -3.8190  -10.3877 H   0  0  0  0  0  0  0  0  0  0  0  0
   12.5955   -3.5951   -8.7807 H   0  0  0  0  0  0  0  0  0  0  0  0
   11.3974   -4.9577   -8.6862 H   0  0  0  0  0  0  0  0  0  0  0  0
  1  2  1  0  0  0  0
  1 27  1  0  0  0  0
  1 28  1  0  0  0  0
  1 29  1  0  0  0  0
  2  3  1  0  0  0  0
  3  4  2  0  0  0  0
  3 13  1  0  0  0  0
  4  5  1  0  0  0  0
  4 30  1  0  0  0  0
  5  6  2  0  0  0  0
  5 11  1  0  0  0  0
  6  7  1  0  0  0  0
  6 31  1  0  0  0  0
  7  8  2  0  0  0  0
  7 16  1  0  0  0  0
  8  9  1  0  0  0  0
  9 10  1  0  0  0  0
  9 11  2  0  0  0  0
 10 32  1  0  0  0  0
 10 33  1  0  0  0  0
 11 12  1  0  0  0  0
 12 13  2  0  0  0  0
 12 34  1  0  0  0  0
 13 14  1  0  0  0  0
 14 15  1  0  0  0  0
 15 35  1  0  0  0  0
 15 36  1  0  0  0  0
 15 37  1  0  0  0  0
 16 17  1  0  0  0  0
 16 21  1  0  0  0  0
 17 18  1  0  0  0  0
 17 38  1  0  0  0  0
 17 39  1  0  0  0  0
 18 19  1  0  0  0  0
 18 40  1  0  0  0  0
 18 41  1  0  0  0  0
 19 20  1  0  0  0  0
 19 22  1  0  0  0  0
 20 21  1  0  0  0  0
 20 42  1  0  0  0  0
 20 43  1  0  0  0  0
 21 44  1  0  0  0  0
 21 45  1  0  0  0  0
 22 23  2  0  0  0  0
 22 24  1  0  0  0  0
 24 25  1  0  0  0  0
 24 26  1  0  0  0  0
 24 46  1  0  0  0  0
 25 26  1  0  0  0  0
 25 47  1  0  0  0  0
 25 48  1  0  0  0  0
 26 49  1  0  0  0  0
 26 50  1  0  0  0  0
M  CHG  1   6   1
M  END
$$$$
Target_lig_706
 OpenBabel04172516573D

 54 56  0  0  0  0  0  0  0  0999 V2000
    8.6811    6.0333    4.9094 C   0  0  0  0  0  0  0  0  0  0  0  0
    7.7468    6.5625    3.8393 C   0  0  0  0  0  0  0  0  0  0  0  0
    6.7778    5.5378    3.6055 O   0  0  0  0  0  0  0  0  0  0  0  0
    7.1614    4.5744    2.7304 C   0  0  0  0  0  0  0  0  0  0  0  0
    8.0221    4.6708    1.8648 O   0  0  0  0  0  0  0  0  0  0  0  0
    6.4113    3.3387    2.9909 C   0  0  0  0  0  0  0  0  0  0  0  0
    6.0054    3.0813    4.3099 C   0  0  0  0  0  0  0  0  0  0  0  0
    5.1205    2.0471    4.5728 C   0  0  0  0  0  0  0  0  0  0  0  0
    4.6413    1.2717    3.5242 C   0  0  0  0  0  0  0  0  0  0  0  0
    5.0973    1.4757    2.2225 C   0  0  0  0  0  0  0  0  0  0  0  0
    6.0261    2.4806    1.9486 C   0  0  0  0  0  0  0  0  0  0  0  0
    6.5903    2.5599    0.6490 N   0  0  0  0  0  0  0  0  0  0  0  0
    5.7886    2.7519   -0.4580 C   0  0  0  0  0  0  0  0  0  0  0  0
    4.5645    2.8561   -0.3740 O   0  0  0  0  0  0  0  0  0  0  0  0
    6.4554    2.8694   -1.6754 N   0  0  0  0  0  0  0  0  0  0  0  0
    7.8968    2.7162   -1.8927 C   0  0  0  0  0  0  0  0  0  0  0  0
    8.3347    1.4946   -2.7031 C   0  0  0  0  0  0  0  0  0  0  0  0
    7.6077    1.1013   -3.9925 C   0  0  0  0  0  0  0  0  0  0  0  0
    6.8187    2.0883   -4.7278 N   0  0  0  0  0  0  0  0  0  0  0  0
    5.5736    2.3813   -3.9938 C   0  0  0  0  0  0  0  0  0  0  0  0
    5.6637    3.3581   -2.8127 C   0  0  0  0  0  0  0  0  0  0  0  0
    7.5778    3.2817   -5.1352 C   0  0  0  0  0  0  0  0  0  0  0  0
    8.7236    2.9310   -6.0448 C   0  0  0  0  0  0  0  0  0  0  0  0
    8.6429    2.3660   -7.2962 C   0  0  0  0  0  0  0  0  0  0  0  0
   10.2050    2.1520   -7.9633 S   0  0  0  0  0  0  0  0  0  0  0  0
   10.8907    2.8445   -6.5490 C   0  0  0  0  0  0  0  0  0  0  0  0
   10.0276    3.1992   -5.6194 N   0  0  0  0  0  0  0  0  0  0  0  0
   12.3660    3.0246   -6.4297 C   0  0  0  0  0  0  0  0  0  0  0  0
    9.4480    6.7791    5.1760 H   0  0  0  0  0  0  0  0  0  0  0  0
    9.1755    5.1193    4.5646 H   0  0  0  0  0  0  0  0  0  0  0  0
    8.1182    5.7617    5.8073 H   0  0  0  0  0  0  0  0  0  0  0  0
    8.2862    6.8220    2.9231 H   0  0  0  0  0  0  0  0  0  0  0  0
    7.2331    7.4629    4.1918 H   0  0  0  0  0  0  0  0  0  0  0  0
    6.3534    3.7056    5.1313 H   0  0  0  0  0  0  0  0  0  0  0  0
    4.7836    1.8630    5.5861 H   0  0  0  0  0  0  0  0  0  0  0  0
    3.9032    0.4941    3.7179 H   0  0  0  0  0  0  0  0  0  0  0  0
    4.7307    0.8391    1.4213 H   0  0  0  0  0  0  0  0  0  0  0  0
    7.4802    3.0411    0.6064 H   0  0  0  0  0  0  0  0  0  0  0  0
    8.4331    2.6430   -0.9446 H   0  0  0  0  0  0  0  0  0  0  0  0
    8.2713    3.6479   -2.3262 H   0  0  0  0  0  0  0  0  0  0  0  0
    8.2935    0.6218   -2.0379 H   0  0  0  0  0  0  0  0  0  0  0  0
    9.3977    1.6315   -2.9430 H   0  0  0  0  0  0  0  0  0  0  0  0
    6.9642    0.2383   -3.7727 H   0  0  0  0  0  0  0  0  0  0  0  0
    8.3499    0.6737   -4.6800 H   0  0  0  0  0  0  0  0  0  0  0  0
    5.1300    1.4407   -3.6353 H   0  0  0  0  0  0  0  0  0  0  0  0
    4.8343    2.7630   -4.7087 H   0  0  0  0  0  0  0  0  0  0  0  0
    4.6361    3.5774   -2.5030 H   0  0  0  0  0  0  0  0  0  0  0  0
    6.0776    4.3257   -3.1243 H   0  0  0  0  0  0  0  0  0  0  0  0
    7.9815    3.8178   -4.2796 H   0  0  0  0  0  0  0  0  0  0  0  0
    6.9280    3.9980   -5.6576 H   0  0  0  0  0  0  0  0  0  0  0  0
    7.7549    2.0694   -7.8352 H   0  0  0  0  0  0  0  0  0  0  0  0
   12.9088    2.6874   -7.3187 H   0  0  0  0  0  0  0  0  0  0  0  0
   12.7461    2.4659   -5.5681 H   0  0  0  0  0  0  0  0  0  0  0  0
   12.5970    4.0836   -6.2756 H   0  0  0  0  0  0  0  0  0  0  0  0
  1  2  1  0  0  0  0
  1 29  1  0  0  0  0
  1 30  1  0  0  0  0
  1 31  1  0  0  0  0
  2  3  1  0  0  0  0
  2 32  1  0  0  0  0
  2 33  1  0  0  0  0
  3  4  1  0  0  0  0
  4  5  2  0  0  0  0
  4  6  1  0  0  0  0
  6  7  2  0  0  0  0
  6 11  1  0  0  0  0
  7  8  1  0  0  0  0
  7 34  1  0  0  0  0
  8  9  2  0  0  0  0
  8 35  1  0  0  0  0
  9 10  1  0  0  0  0
  9 36  1  0  0  0  0
 10 11  2  0  0  0  0
 10 37  1  0  0  0  0
 11 12  1  0  0  0  0
 12 13  1  0  0  0  0
 12 38  1  0  0  0  0
 13 14  2  0  0  0  0
 13 15  1  0  0  0  0
 15 16  1  0  0  0  0
 15 21  1  0  0  0  0
 16 17  1  0  0  0  0
 16 39  1  0  0  0  0
 16 40  1  0  0  0  0
 17 18  1  0  0  0  0
 17 41  1  0  0  0  0
 17 42  1  0  0  0  0
 18 19  1  0  0  0  0
 18 43  1  0  0  0  0
 18 44  1  0  0  0  0
 19 20  1  0  0  0  0
 19 22  1  0  0  0  0
 20 21  1  0  0  0  0
 20 45  1  0  0  0  0
 20 46  1  0  0  0  0
 21 47  1  0  0  0  0
 21 48  1  0  0  0  0
 22 23  1  0  0  0  0
 22 49  1  0  0  0  0
 22 50  1  0  0  0  0
 23 24  2  0  0  0  0
 23 27  1  0  0  0  0
 24 25  1  0  0  0  0
 24 51  1  0  0  0  0
 25 26  1  0  0  0  0
 26 27  2  0  0  0  0
 26 28  1  0  0  0  0
 28 52  1  0  0  0  0
 28 53  1  0  0  0  0
 28 54  1  0  0  0  0
M  END
$$$$
Target_lig_707
 OpenBabel04172516573D

 86 90  0  0  0  0  0  0  0  0999 V2000
   16.7384    4.6229    1.5643 C   0  0  0  0  0  0  0  0  0  0  0  0
   15.3062    4.1071    1.7215 C   0  0  0  0  0  0  0  0  0  0  0  0
   15.1075    3.1066    2.7923 N   0  0  0  0  0  0  0  0  0  0  0  0
   15.5742    3.5651    4.1104 C   0  0  0  0  0  0  0  0  0  0  0  0
   14.8060    4.7291    4.7288 C   0  0  0  0  0  0  0  0  0  0  0  0
   13.6983    2.6317    2.7867 C   0  0  0  0  0  0  0  0  0  0  0  0
   13.3582    1.5210    3.8101 C   0  0  0  0  0  0  0  0  0  0  0  0
   11.9871    1.1089    3.6638 O   0  0  0  0  0  0  0  0  0  0  0  0
   11.5208    0.1939    4.5771 C   0  0  0  0  0  0  0  0  0  0  0  0
   12.0590   -0.0351    5.8402 C   0  0  0  0  0  0  0  0  0  0  0  0
   11.4624   -0.9611    6.7074 C   0  0  0  0  0  0  0  0  0  0  0  0
   10.2910   -1.6510    6.3543 C   0  0  0  0  0  0  0  0  0  0  0  0
    9.7910   -1.4688    5.0640 C   0  0  0  0  0  0  0  0  0  0  0  0
   10.3858   -0.5326    4.1959 C   0  0  0  0  0  0  0  0  0  0  0  0
    9.7064   -2.6081    7.2421 N   0  0  0  0  0  0  0  0  0  0  0  0
    9.6595   -2.3422    8.6582 C   0  0  0  0  0  0  0  0  0  0  0  0
    9.4166   -1.0555    9.0336 N   0  0  0  0  0  0  0  0  0  0  0  0
    9.6779   -0.7412   10.3049 C   0  0  0  0  0  0  0  0  0  0  0  0
   10.1606   -1.6179   11.2030 N   0  0  0  0  0  0  0  0  0  0  0  0
   10.3470   -2.8769   10.8394 C   0  0  0  0  0  0  0  0  0  0  0  0
   10.9948   -3.6971   11.7500 C   0  0  0  0  0  0  0  0  0  0  0  0
   11.2604   -5.0341   11.4665 C   0  0  0  0  0  0  0  0  0  0  0  0
   10.7829   -5.5836   10.2873 C   0  0  0  0  0  0  0  0  0  0  0  0
   10.1566   -4.7604    9.3438 C   0  0  0  0  0  0  0  0  0  0  0  0
   10.0133   -3.3610    9.5783 C   0  0  0  0  0  0  0  0  0  0  0  0
    9.6437    0.6585   10.7824 C   0  0  0  0  0  0  0  0  0  0  0  0
   10.5596    0.9905   11.8216 C   0  0  0  0  0  0  0  0  0  0  0  0
   10.5821    2.2309   12.4516 C   0  0  0  0  0  0  0  0  0  0  0  0
    9.6979    3.2024   12.0339 C   0  0  0  0  0  0  0  0  0  0  0  0
    8.8345    2.9443   10.9725 C   0  0  0  0  0  0  0  0  0  0  0  0
    8.7933    1.6951   10.3252 C   0  0  0  0  0  0  0  0  0  0  0  0
    7.8541    1.4952    9.2895 N   0  0  0  0  0  0  0  0  0  0  0  0
    7.1699    2.4657    8.5758 C   0  0  0  0  0  0  0  0  0  0  0  0
    7.3834    3.6802    8.6311 O   0  0  0  0  0  0  0  0  0  0  0  0
    6.0729    1.9783    7.6376 C   0  0  0  0  0  0  0  0  0  0  0  0
    5.8263    0.4714    7.5968 C   0  0  0  0  0  0  0  0  0  0  0  0
    5.5709   -0.0991    8.9253 N   0  0  0  0  0  0  0  0  0  0  0  0
    4.3353    0.4036    9.5569 C   0  0  0  0  0  0  0  0  0  0  0  0
    4.1155   -0.2108   10.9598 C   0  0  0  0  0  0  0  0  0  0  0  0
    4.1147   -1.6859   10.9917 N   0  0  0  0  0  0  0  0  0  0  0  0
    5.3246   -2.1791   10.3022 C   0  0  0  0  0  0  0  0  0  0  0  0
    5.5794   -1.5689    8.9015 C   0  0  0  0  0  0  0  0  0  0  0  0
    2.8959   -2.2317   10.4003 C   0  0  0  0  0  0  0  0  0  0  0  0
   16.8349    5.1691    0.6188 H   0  0  0  0  0  0  0  0  0  0  0  0
   17.4655    3.8046    1.5495 H   0  0  0  0  0  0  0  0  0  0  0  0
   17.0106    5.3187    2.3652 H   0  0  0  0  0  0  0  0  0  0  0  0
   15.0313    3.6474    0.7643 H   0  0  0  0  0  0  0  0  0  0  0  0
   14.6401    4.9676    1.8567 H   0  0  0  0  0  0  0  0  0  0  0  0
   16.6358    3.8317    4.0510 H   0  0  0  0  0  0  0  0  0  0  0  0
   15.5652    2.7227    4.8130 H   0  0  0  0  0  0  0  0  0  0  0  0
   14.6553    5.5500    4.0226 H   0  0  0  0  0  0  0  0  0  0  0  0
   15.3668    5.1315    5.5789 H   0  0  0  0  0  0  0  0  0  0  0  0
   13.8271    4.4084    5.0982 H   0  0  0  0  0  0  0  0  0  0  0  0
   13.4653    2.2359    1.7889 H   0  0  0  0  0  0  0  0  0  0  0  0
   13.0084    3.4731    2.9345 H   0  0  0  0  0  0  0  0  0  0  0  0
   13.5193    1.9195    4.8142 H   0  0  0  0  0  0  0  0  0  0  0  0
   14.0051    0.6528    3.6379 H   0  0  0  0  0  0  0  0  0  0  0  0
   12.9237    0.5032    6.2097 H   0  0  0  0  0  0  0  0  0  0  0  0
   11.9147   -1.1138    7.6842 H   0  0  0  0  0  0  0  0  0  0  0  0
    8.9162   -2.0216    4.7326 H   0  0  0  0  0  0  0  0  0  0  0  0
    9.9557   -0.3679    3.2109 H   0  0  0  0  0  0  0  0  0  0  0  0
   10.2807   -3.4561    7.1183 H   0  0  0  0  0  0  0  0  0  0  0  0
   11.3424   -3.2677   12.6871 H   0  0  0  0  0  0  0  0  0  0  0  0
   11.8321   -5.6305   12.1738 H   0  0  0  0  0  0  0  0  0  0  0  0
   10.9269   -6.6440   10.0908 H   0  0  0  0  0  0  0  0  0  0  0  0
    9.7886   -5.2100    8.4251 H   0  0  0  0  0  0  0  0  0  0  0  0
   11.2706    0.2434   12.1699 H   0  0  0  0  0  0  0  0  0  0  0  0
   11.2649    2.4138   13.2695 H   0  0  0  0  0  0  0  0  0  0  0  0
    9.6622    4.1696   12.5346 H   0  0  0  0  0  0  0  0  0  0  0  0
    8.1457    3.7401   10.7082 H   0  0  0  0  0  0  0  0  0  0  0  0
    7.6472    0.5222    9.0756 H   0  0  0  0  0  0  0  0  0  0  0  0
    6.3412    2.3178    6.6286 H   0  0  0  0  0  0  0  0  0  0  0  0
    5.1508    2.5053    7.9079 H   0  0  0  0  0  0  0  0  0  0  0  0
    6.7293    0.0096    7.1762 H   0  0  0  0  0  0  0  0  0  0  0  0
    5.0074    0.2466    6.9046 H   0  0  0  0  0  0  0  0  0  0  0  0
    3.4680    0.2005    8.9177 H   0  0  0  0  0  0  0  0  0  0  0  0
    4.3886    1.4879    9.6939 H   0  0  0  0  0  0  0  0  0  0  0  0
    3.1845    0.1797   11.3908 H   0  0  0  0  0  0  0  0  0  0  0  0
    4.9150    0.1444   11.6245 H   0  0  0  0  0  0  0  0  0  0  0  0
    5.2952   -3.2726   10.2253 H   0  0  0  0  0  0  0  0  0  0  0  0
    6.1897   -1.9523   10.9407 H   0  0  0  0  0  0  0  0  0  0  0  0
    4.8338   -1.9456    8.1899 H   0  0  0  0  0  0  0  0  0  0  0  0
    6.5597   -1.9189    8.5581 H   0  0  0  0  0  0  0  0  0  0  0  0
    2.0140   -1.8596   10.9325 H   0  0  0  0  0  0  0  0  0  0  0  0
    2.8832   -3.3229   10.5009 H   0  0  0  0  0  0  0  0  0  0  0  0
    2.7787   -1.9882    9.3397 H   0  0  0  0  0  0  0  0  0  0  0  0
  1  2  1  0  0  0  0
  1 44  1  0  0  0  0
  1 45  1  0  0  0  0
  1 46  1  0  0  0  0
  2  3  1  0  0  0  0
  2 47  1  0  0  0  0
  2 48  1  0  0  0  0
  3  4  1  0  0  0  0
  3  6  1  0  0  0  0
  4  5  1  0  0  0  0
  4 49  1  0  0  0  0
  4 50  1  0  0  0  0
  5 51  1  0  0  0  0
  5 52  1  0  0  0  0
  5 53  1  0  0  0  0
  6  7  1  0  0  0  0
  6 54  1  0  0  0  0
  6 55  1  0  0  0  0
  7  8  1  0  0  0  0
  7 56  1  0  0  0  0
  7 57  1  0  0  0  0
  8  9  1  0  0  0  0
  9 10  2  0  0  0  0
  9 14  1  0  0  0  0
 10 11  1  0  0  0  0
 10 58  1  0  0  0  0
 11 12  2  0  0  0  0
 11 59  1  0  0  0  0
 12 13  1  0  0  0  0
 12 15  1  0  0  0  0
 13 14  2  0  0  0  0
 13 60  1  0  0  0  0
 14 61  1  0  0  0  0
 15 16  1  0  0  0  0
 15 62  1  0  0  0  0
 16 17  2  0  0  0  0
 16 25  1  0  0  0  0
 17 18  1  0  0  0  0
 18 19  2  0  0  0  0
 18 26  1  0  0  0  0
 19 20  1  0  0  0  0
 20 21  2  0  0  0  0
 20 25  1  0  0  0  0
 21 22  1  0  0  0  0
 21 63  1  0  0  0  0
 22 23  2  0  0  0  0
 22 64  1  0  0  0  0
 23 24  1  0  0  0  0
 23 65  1  0  0  0  0
 24 25  2  0  0  0  0
 24 66  1  0  0  0  0
 26 27  2  0  0  0  0
 26 31  1  0  0  0  0
 27 28  1  0  0  0  0
 27 67  1  0  0  0  0
 28 29  2  0  0  0  0
 28 68  1  0  0  0  0
 29 30  1  0  0  0  0
 29 69  1  0  0  0  0
 30 31  2  0  0  0  0
 30 70  1  0  0  0  0
 31 32  1  0  0  0  0
 32 33  1  0  0  0  0
 32 71  1  0  0  0  0
 33 34  2  0  0  0  0
 33 35  1  0  0  0  0
 35 36  1  0  0  0  0
 35 72  1  0  0  0  0
 35 73  1  0  0  0  0
 36 37  1  0  0  0  0
 36 74  1  0  0  0  0
 36 75  1  0  0  0  0
 37 38  1  0  0  0  0
 37 42  1  0  0  0  0
 38 39  1  0  0  0  0
 38 76  1  0  0  0  0
 38 77  1  0  0  0  0
 39 40  1  0  0  0  0
 39 78  1  0  0  0  0
 39 79  1  0  0  0  0
 40 41  1  0  0  0  0
 40 43  1  0  0  0  0
 41 42  1  0  0  0  0
 41 80  1  0  0  0  0
 41 81  1  0  0  0  0
 42 82  1  0  0  0  0
 42 83  1  0  0  0  0
 43 84  1  0  0  0  0
 43 85  1  0  0  0  0
 43 86  1  0  0  0  0
M  END
$$$$
Target_lig_711
 OpenBabel04172516573D

 79 81  0  0  0  0  0  0  0  0999 V2000
    1.3049    1.0178    0.0426 C   0  0  0  0  0  0  0  0  0  0  0  0
    2.2834   -0.0089   -0.1044 O   0  0  0  0  0  0  0  0  0  0  0  0
    2.9825   -0.0282   -1.2731 C   0  0  0  0  0  0  0  0  0  0  0  0
    3.2609    1.0646   -2.0720 C   0  0  0  0  0  0  0  0  0  0  0  0
    4.0348    0.9451   -3.2516 C   0  0  0  0  0  0  0  0  0  0  0  0
    4.2835    2.2360   -4.0332 C   0  0  0  0  0  0  0  0  0  0  0  0
    3.6716    3.5696   -3.5759 C   0  0  0  0  0  0  0  0  0  0  0  0
    4.1101    4.6667   -4.4912 N   0  3  0  0  0  0  0  0  0  0  0  0
    4.5900   -0.3463   -3.6322 C   0  0  0  0  0  0  0  0  0  0  0  0
    4.3931   -1.4348   -2.7042 C   0  0  0  0  0  0  0  0  0  0  0  0
    5.0280   -2.8251   -2.7836 C   0  0  0  0  0  0  0  0  0  0  0  0
    5.9896   -3.2493   -1.6566 C   0  0  0  0  0  0  0  0  0  0  0  0
    5.3523   -3.4079   -0.3317 N   0  3  0  0  0  0  0  0  0  0  0  0
    3.5237   -1.2571   -1.6079 C   0  0  0  0  0  0  0  0  0  0  0  0
    5.3130   -0.5584   -4.9541 C   0  0  0  0  0  0  0  0  0  0  0  0
    6.1037    0.4086   -5.5729 C   0  0  0  0  0  0  0  0  0  0  0  0
    6.6930    0.2708   -6.8525 C   0  0  0  0  0  0  0  0  0  0  0  0
    7.1891    1.5641   -7.4553 C   0  0  0  0  0  0  0  0  0  0  0  0
    6.8172   -1.0096   -7.4362 C   0  0  0  0  0  0  0  0  0  0  0  0
    6.1553   -2.0495   -6.7370 C   0  0  0  0  0  0  0  0  0  0  0  0
    6.4170   -3.5272   -6.9391 C   0  0  0  0  0  0  0  0  0  0  0  0
    5.2638   -1.7582   -5.6683 C   0  0  0  0  0  0  0  0  0  0  0  0
    7.6247   -1.2552   -8.6780 C   0  0  0  0  0  0  0  0  0  0  0  0
    8.7975   -0.5258   -8.9677 C   0  0  0  0  0  0  0  0  0  0  0  0
    9.5380   -0.7016  -10.1515 C   0  0  0  0  0  0  0  0  0  0  0  0
   10.7046    0.2301  -10.4120 C   0  0  0  0  0  0  0  0  0  0  0  0
   10.3206    1.4682  -11.2325 C   0  0  0  0  0  0  0  0  0  0  0  0
   11.5240    2.3092  -11.4936 N   0  3  0  0  0  0  0  0  0  0  0  0
    9.1871   -1.7623  -10.9933 C   0  0  0  0  0  0  0  0  0  0  0  0
    9.8857   -2.0316  -12.1311 O   0  0  0  0  0  0  0  0  0  0  0  0
    8.1210   -2.6221  -10.6754 C   0  0  0  0  0  0  0  0  0  0  0  0
    7.8259   -3.9142  -11.4121 C   0  0  0  0  0  0  0  0  0  0  0  0
    9.0562   -4.6967  -11.9009 C   0  0  0  0  0  0  0  0  0  0  0  0
    8.6585   -6.0105  -12.4751 N   0  3  0  0  0  0  0  0  0  0  0  0
    7.2833   -2.2613   -9.6031 C   0  0  0  0  0  0  0  0  0  0  0  0
    0.8182    0.8781    1.0118 H   0  0  0  0  0  0  0  0  0  0  0  0
    0.5447    0.9351   -0.7407 H   0  0  0  0  0  0  0  0  0  0  0  0
    1.7570    2.0144    0.0474 H   0  0  0  0  0  0  0  0  0  0  0  0
    2.8728    2.0263   -1.7624 H   0  0  0  0  0  0  0  0  0  0  0  0
    3.9985    2.0713   -5.0794 H   0  0  0  0  0  0  0  0  0  0  0  0
    5.3553    2.4295   -3.9493 H   0  0  0  0  0  0  0  0  0  0  0  0
    4.0337    3.8537   -2.5820 H   0  0  0  0  0  0  0  0  0  0  0  0
    2.5794    3.5639   -3.5891 H   0  0  0  0  0  0  0  0  0  0  0  0
    5.1350    4.7686   -4.5325 H   0  0  0  0  0  0  0  0  0  0  0  0
    3.7420    5.5697   -4.1741 H   0  0  0  0  0  0  0  0  0  0  0  0
    3.7622    4.5292   -5.4520 H   0  0  0  0  0  0  0  0  0  0  0  0
    5.6576   -2.9181   -3.6634 H   0  0  0  0  0  0  0  0  0  0  0  0
    4.2259   -3.5660   -2.9008 H   0  0  0  0  0  0  0  0  0  0  0  0
    6.8088   -2.5347   -1.5372 H   0  0  0  0  0  0  0  0  0  0  0  0
    6.4104   -4.2316   -1.8996 H   0  0  0  0  0  0  0  0  0  0  0  0
    5.0847   -2.5036    0.0814 H   0  0  0  0  0  0  0  0  0  0  0  0
    6.0038   -3.8405    0.3397 H   0  0  0  0  0  0  0  0  0  0  0  0
    4.5182   -4.0115   -0.3532 H   0  0  0  0  0  0  0  0  0  0  0  0
    3.2245   -2.0975   -0.9859 H   0  0  0  0  0  0  0  0  0  0  0  0
    6.3065    1.3474   -5.0873 H   0  0  0  0  0  0  0  0  0  0  0  0
    6.6119    2.4161   -7.0721 H   0  0  0  0  0  0  0  0  0  0  0  0
    7.0545    1.5836   -8.5404 H   0  0  0  0  0  0  0  0  0  0  0  0
    8.2331    1.7422   -7.1853 H   0  0  0  0  0  0  0  0  0  0  0  0
    7.2939   -3.7346   -7.5562 H   0  0  0  0  0  0  0  0  0  0  0  0
    5.5436   -4.0347   -7.3499 H   0  0  0  0  0  0  0  0  0  0  0  0
    6.6601   -3.9758   -5.9662 H   0  0  0  0  0  0  0  0  0  0  0  0
    4.6001   -2.5608   -5.3440 H   0  0  0  0  0  0  0  0  0  0  0  0
    9.1645    0.1897   -8.2469 H   0  0  0  0  0  0  0  0  0  0  0  0
   11.5119   -0.3221  -10.9053 H   0  0  0  0  0  0  0  0  0  0  0  0
   11.1226    0.5558   -9.4499 H   0  0  0  0  0  0  0  0  0  0  0  0
    9.6004    2.1034  -10.7058 H   0  0  0  0  0  0  0  0  0  0  0  0
    9.9083    1.1994  -12.2100 H   0  0  0  0  0  0  0  0  0  0  0  0
   11.9494    2.6748  -10.6291 H   0  0  0  0  0  0  0  0  0  0  0  0
   11.2888    3.1310  -12.0696 H   0  0  0  0  0  0  0  0  0  0  0  0
   12.2653    1.8060  -12.0022 H   0  0  0  0  0  0  0  0  0  0  0  0
   10.2600   -1.2232  -12.5113 H   0  0  0  0  0  0  0  0  0  0  0  0
    7.1439   -3.7049  -12.2431 H   0  0  0  0  0  0  0  0  0  0  0  0
    7.2878   -4.5760  -10.7170 H   0  0  0  0  0  0  0  0  0  0  0  0
    9.7558   -4.9074  -11.0836 H   0  0  0  0  0  0  0  0  0  0  0  0
    9.5844   -4.1947  -12.7113 H   0  0  0  0  0  0  0  0  0  0  0  0
    8.2154   -6.6343  -11.7859 H   0  0  0  0  0  0  0  0  0  0  0  0
    9.4852   -6.5071  -12.8359 H   0  0  0  0  0  0  0  0  0  0  0  0
    8.0141   -5.9042  -13.2695 H   0  0  0  0  0  0  0  0  0  0  0  0
    6.3672   -2.8349   -9.4506 H   0  0  0  0  0  0  0  0  0  0  0  0
  1  2  1  0  0  0  0
  1 36  1  0  0  0  0
  1 37  1  0  0  0  0
  1 38  1  0  0  0  0
  2  3  1  0  0  0  0
  3  4  2  0  0  0  0
  3 14  1  0  0  0  0
  4  5  1  0  0  0  0
  4 39  1  0  0  0  0
  5  6  1  0  0  0  0
  5  9  2  0  0  0  0
  6  7  1  0  0  0  0
  6 40  1  0  0  0  0
  6 41  1  0  0  0  0
  7  8  1  0  0  0  0
  7 42  1  0  0  0  0
  7 43  1  0  0  0  0
  8 44  1  0  0  0  0
  8 45  1  0  0  0  0
  8 46  1  0  0  0  0
  9 10  1  0  0  0  0
  9 15  1  0  0  0  0
 10 11  1  0  0  0  0
 10 14  2  0  0  0  0
 11 12  1  0  0  0  0
 11 47  1  0  0  0  0
 11 48  1  0  0  0  0
 12 13  1  0  0  0  0
 12 49  1  0  0  0  0
 12 50  1  0  0  0  0
 13 51  1  0  0  0  0
 13 52  1  0  0  0  0
 13 53  1  0  0  0  0
 14 54  1  0  0  0  0
 15 16  2  0  0  0  0
 15 22  1  0  0  0  0
 16 17  1  0  0  0  0
 16 55  1  0  0  0  0
 17 18  1  0  0  0  0
 17 19  2  0  0  0  0
 18 56  1  0  0  0  0
 18 57  1  0  0  0  0
 18 58  1  0  0  0  0
 19 20  1  0  0  0  0
 19 23  1  0  0  0  0
 20 21  1  0  0  0  0
 20 22  2  0  0  0  0
 21 59  1  0  0  0  0
 21 60  1  0  0  0  0
 21 61  1  0  0  0  0
 22 62  1  0  0  0  0
 23 24  2  0  0  0  0
 23 35  1  0  0  0  0
 24 25  1  0  0  0  0
 24 63  1  0  0  0  0
 25 26  1  0  0  0  0
 25 29  2  0  0  0  0
 26 27  1  0  0  0  0
 26 64  1  0  0  0  0
 26 65  1  0  0  0  0
 27 28  1  0  0  0  0
 27 66  1  0  0  0  0
 27 67  1  0  0  0  0
 28 68  1  0  0  0  0
 28 69  1  0  0  0  0
 28 70  1  0  0  0  0
 29 30  1  0  0  0  0
 29 31  1  0  0  0  0
 30 71  1  0  0  0  0
 31 32  1  0  0  0  0
 31 35  2  0  0  0  0
 32 33  1  0  0  0  0
 32 72  1  0  0  0  0
 32 73  1  0  0  0  0
 33 34  1  0  0  0  0
 33 74  1  0  0  0  0
 33 75  1  0  0  0  0
 34 76  1  0  0  0  0
 34 77  1  0  0  0  0
 34 78  1  0  0  0  0
 35 79  1  0  0  0  0
M  CHG  4   8   1  13   1  28   1  34   1
M  END
$$$$
Target_lig_723
 OpenBabel04172516573D

 63 68  0  0  0  0  0  0  0  0999 V2000
    0.9280    0.2350   -0.1225 C   0  0  0  0  0  0  0  0  0  0  0  0
    0.2253   -0.2547    1.1383 C   0  0  0  0  0  0  0  0  0  0  0  0
   -1.2223   -0.3552    1.0415 N   0  0  0  0  0  0  0  0  0  0  0  0
   -2.0060   -1.4527    0.8343 C   0  0  0  0  0  0  0  0  0  0  0  0
   -3.3059   -0.9895    0.9741 C   0  0  0  0  0  0  0  0  0  0  0  0
   -4.6741   -1.6622    0.9098 C   0  0  0  0  0  0  0  0  0  0  0  0
   -4.6855   -3.1313    0.7968 N   0  0  0  0  0  0  0  0  0  0  0  0
   -5.8245   -3.9805    0.4540 C   0  0  0  0  0  0  0  0  0  0  0  0
   -5.3384   -4.9797   -0.3822 C   0  0  0  0  0  0  0  0  0  0  0  0
   -4.8602   -6.1430    0.1877 C   0  0  0  0  0  0  0  0  0  0  0  0
   -3.5863   -6.5282   -0.1677 C   0  0  0  0  0  0  0  0  0  0  0  0
   -2.9130   -5.8215   -1.1722 C   0  0  0  0  0  0  0  0  0  0  0  0
   -3.5813   -4.8574   -1.9610 C   0  0  0  0  0  0  0  0  0  0  0  0
   -4.8458   -4.4385   -1.5821 C   0  0  0  0  0  0  0  0  0  0  0  0
   -5.5635   -3.4230   -2.1597 N   0  3  0  0  0  0  0  0  0  0  0  0
   -6.7781   -3.0549   -1.5509 C   0  0  0  0  0  0  0  0  0  0  0  0
   -6.9157   -3.5510   -0.2567 C   0  0  0  0  0  0  0  0  0  0  0  0
   -8.2271   -3.8889   -0.0975 O   0  0  0  0  0  0  0  0  0  0  0  0
   -8.8797   -3.1161   -1.0118 C   0  0  0  0  0  0  0  0  0  0  0  0
   -7.9917   -2.3078   -1.7192 C   0  0  0  0  0  0  0  0  0  0  0  0
   -8.5146   -1.2098   -2.3565 C   0  0  0  0  0  0  0  0  0  0  0  0
   -9.8610   -0.8915   -2.1295 C   0  0  0  0  0  0  0  0  0  0  0  0
  -10.7310   -1.8166   -1.5751 C   0  0  0  0  0  0  0  0  0  0  0  0
  -10.2467   -3.0668   -1.2132 C   0  0  0  0  0  0  0  0  0  0  0  0
   -3.2524    0.3795    1.1056 N   0  0  0  0  0  0  0  0  0  0  0  0
   -1.9791    0.7581    1.1407 N   0  0  0  0  0  0  0  0  0  0  0  0
    0.5844    1.6510   -0.5930 C   0  0  0  0  0  0  0  0  0  0  0  0
    0.9424    2.7354    0.3998 N   0  3  0  0  0  0  0  0  0  0  0  0
    2.4352    2.8570    0.6407 C   0  0  0  0  0  0  0  0  0  0  0  0
    2.7408    3.9807    1.6204 C   0  0  0  0  0  0  0  0  0  0  0  0
    2.1633    5.3061    1.1504 C   0  0  0  0  0  0  0  0  0  0  0  0
    0.6627    5.1734    0.9324 C   0  0  0  0  0  0  0  0  0  0  0  0
    0.3428    4.0672   -0.0629 C   0  0  0  0  0  0  0  0  0  0  0  0
    0.6940   -0.4539   -0.9411 H   0  0  0  0  0  0  0  0  0  0  0  0
    2.0125    0.1494    0.0270 H   0  0  0  0  0  0  0  0  0  0  0  0
    0.4335    0.3951    1.9992 H   0  0  0  0  0  0  0  0  0  0  0  0
    0.5869   -1.2535    1.4050 H   0  0  0  0  0  0  0  0  0  0  0  0
   -1.5865   -2.4512    0.7329 H   0  0  0  0  0  0  0  0  0  0  0  0
   -5.1731   -1.2366    0.0275 H   0  0  0  0  0  0  0  0  0  0  0  0
   -5.2492   -1.3783    1.7900 H   0  0  0  0  0  0  0  0  0  0  0  0
   -4.0145   -3.6086    1.4011 H   0  0  0  0  0  0  0  0  0  0  0  0
   -5.4038   -6.6503    0.9868 H   0  0  0  0  0  0  0  0  0  0  0  0
   -3.0933   -7.3172    0.3995 H   0  0  0  0  0  0  0  0  0  0  0  0
   -1.8540   -6.0211   -1.3191 H   0  0  0  0  0  0  0  0  0  0  0  0
   -3.0412   -4.3773   -2.7692 H   0  0  0  0  0  0  0  0  0  0  0  0
   -5.3192   -3.0856   -3.0837 H   0  0  0  0  0  0  0  0  0  0  0  0
   -7.8701   -0.5532   -2.9068 H   0  0  0  0  0  0  0  0  0  0  0  0
  -10.2567    0.0846   -2.4225 H   0  0  0  0  0  0  0  0  0  0  0  0
  -11.7948   -1.6050   -1.4779 H   0  0  0  0  0  0  0  0  0  0  0  0
  -10.8821   -3.9416   -1.1649 H   0  0  0  0  0  0  0  0  0  0  0  0
   -0.4852    1.7390   -0.8074 H   0  0  0  0  0  0  0  0  0  0  0  0
    1.1284    1.8779   -1.5180 H   0  0  0  0  0  0  0  0  0  0  0  0
    0.4774    2.5411    1.2969 H   0  0  0  0  0  0  0  0  0  0  0  0
    2.9167    3.0257   -0.3291 H   0  0  0  0  0  0  0  0  0  0  0  0
    2.7762    1.9083    1.0613 H   0  0  0  0  0  0  0  0  0  0  0  0
    3.8264    4.0750    1.7398 H   0  0  0  0  0  0  0  0  0  0  0  0
    2.3329    3.7314    2.6079 H   0  0  0  0  0  0  0  0  0  0  0  0
    2.6484    5.6105    0.2137 H   0  0  0  0  0  0  0  0  0  0  0  0
    2.3696    6.0883    1.8880 H   0  0  0  0  0  0  0  0  0  0  0  0
    0.2603    6.1257    0.5672 H   0  0  0  0  0  0  0  0  0  0  0  0
    0.1703    4.9661    1.8906 H   0  0  0  0  0  0  0  0  0  0  0  0
    0.7517    4.2873   -1.0564 H   0  0  0  0  0  0  0  0  0  0  0  0
   -0.7396    3.9239   -0.1366 H   0  0  0  0  0  0  0  0  0  0  0  0
  1  2  1  0  0  0  0
  1 27  1  0  0  0  0
  1 34  1  0  0  0  0
  1 35  1  0  0  0  0
  2  3  1  0  0  0  0
  2 36  1  0  0  0  0
  2 37  1  0  0  0  0
  3  4  1  0  0  0  0
  3 26  1  0  0  0  0
  4  5  2  0  0  0  0
  4 38  1  0  0  0  0
  5  6  1  0  0  0  0
  5 25  1  0  0  0  0
  6  7  1  0  0  0  0
  6 39  1  0  0  0  0
  6 40  1  0  0  0  0
  7  8  1  0  0  0  0
  7 41  1  0  0  0  0
  8  9  2  0  0  0  0
  8 17  1  0  0  0  0
  9 10  1  0  0  0  0
  9 14  1  0  0  0  0
 10 11  2  0  0  0  0
 10 42  1  0  0  0  0
 11 12  1  0  0  0  0
 11 43  1  0  0  0  0
 12 13  2  0  0  0  0
 12 44  1  0  0  0  0
 13 14  1  0  0  0  0
 13 45  1  0  0  0  0
 14 15  2  0  0  0  0
 15 16  1  0  0  0  0
 15 46  1  0  0  0  0
 16 17  2  0  0  0  0
 16 20  1  0  0  0  0
 17 18  1  0  0  0  0
 18 19  1  0  0  0  0
 19 20  2  0  0  0  0
 19 24  1  0  0  0  0
 20 21  1  0  0  0  0
 21 22  2  0  0  0  0
 21 47  1  0  0  0  0
 22 23  1  0  0  0  0
 22 48  1  0  0  0  0
 23 24  2  0  0  0  0
 23 49  1  0  0  0  0
 24 50  1  0  0  0  0
 25 26  2  0  0  0  0
 27 28  1  0  0  0  0
 27 51  1  0  0  0  0
 27 52  1  0  0  0  0
 28 29  1  0  0  0  0
 28 33  1  0  0  0  0
 28 53  1  0  0  0  0
 29 30  1  0  0  0  0
 29 54  1  0  0  0  0
 29 55  1  0  0  0  0
 30 31  1  0  0  0  0
 30 56  1  0  0  0  0
 30 57  1  0  0  0  0
 31 32  1  0  0  0  0
 31 58  1  0  0  0  0
 31 59  1  0  0  0  0
 32 33  1  0  0  0  0
 32 60  1  0  0  0  0
 32 61  1  0  0  0  0
 33 62  1  0  0  0  0
 33 63  1  0  0  0  0
M  CHG  2  15   1  28   1
M  END
$$$$
Target_lig_953
 OpenBabel04172516573D

 49 50  0  0  0  0  0  0  0  0999 V2000
   -5.6845   -2.7640    4.5263 C   0  0  0  0  0  0  0  0  0  0  0  0
   -4.8771   -3.2622    3.5011 C   0  0  0  0  0  0  0  0  0  0  0  0
   -4.5355   -2.4537    2.4131 C   0  0  0  0  0  0  0  0  0  0  0  0
   -5.0296   -1.1489    2.3515 C   0  0  0  0  0  0  0  0  0  0  0  0
   -5.8384   -0.6443    3.3761 C   0  0  0  0  0  0  0  0  0  0  0  0
   -6.1609   -1.4519    4.4706 C   0  0  0  0  0  0  0  0  0  0  0  0
   -6.9780   -0.9305    5.6002 C   0  0  0  0  0  0  0  0  0  0  0  0
   -7.8887   -0.0227    5.4534 N   0  0  0  0  0  0  0  0  0  0  0  0
   -6.7773   -1.4005    6.8640 N   0  0  0  0  0  0  0  0  0  0  0  0
   -3.7254   -2.8215    1.3688 O   0  0  0  0  0  0  0  0  0  0  0  0
   -3.2396   -4.1624    1.4185 C   0  0  0  0  0  0  0  0  0  0  0  0
   -2.3583   -4.4384    0.2048 C   0  0  0  0  0  0  0  0  0  0  0  0
   -1.8340   -5.8800    0.1892 C   0  0  0  0  0  0  0  0  0  0  0  0
   -2.9209   -6.9623    0.1718 C   0  0  0  0  0  0  0  0  0  0  0  0
   -3.8308   -6.8453   -1.0466 C   0  0  0  0  0  0  0  0  0  0  0  0
   -4.8308   -7.8618   -0.9949 O   0  0  0  0  0  0  0  0  0  0  0  0
   -5.7087   -7.8778   -2.0481 C   0  0  0  0  0  0  0  0  0  0  0  0
   -5.6903   -7.0016   -3.1370 C   0  0  0  0  0  0  0  0  0  0  0  0
   -6.6260   -7.1337   -4.1662 C   0  0  0  0  0  0  0  0  0  0  0  0
   -7.5916   -8.1419   -4.1126 C   0  0  0  0  0  0  0  0  0  0  0  0
   -7.6260   -9.0097   -3.0170 C   0  0  0  0  0  0  0  0  0  0  0  0
   -6.6848   -8.8750   -1.9911 C   0  0  0  0  0  0  0  0  0  0  0  0
   -8.5727   -8.2651   -5.2247 C   0  0  0  0  0  0  0  0  0  0  0  0
   -9.0997   -9.3942   -5.5760 N   0  0  0  0  0  0  0  0  0  0  0  0
   -8.9577   -7.1634   -5.9277 N   0  0  0  0  0  0  0  0  0  0  0  0
   -5.9462   -3.4130    5.3586 H   0  0  0  0  0  0  0  0  0  0  0  0
   -4.5322   -4.2871    3.5903 H   0  0  0  0  0  0  0  0  0  0  0  0
   -4.7736   -0.5153    1.5053 H   0  0  0  0  0  0  0  0  0  0  0  0
   -6.1797    0.3851    3.3187 H   0  0  0  0  0  0  0  0  0  0  0  0
   -8.0011    0.2392    4.4711 H   0  0  0  0  0  0  0  0  0  0  0  0
   -5.8171   -1.6060    7.1149 H   0  0  0  0  0  0  0  0  0  0  0  0
   -7.2410   -0.8096    7.5475 H   0  0  0  0  0  0  0  0  0  0  0  0
   -4.0960   -4.8445    1.4129 H   0  0  0  0  0  0  0  0  0  0  0  0
   -2.6403   -4.3114    2.3248 H   0  0  0  0  0  0  0  0  0  0  0  0
   -1.5090   -3.7437    0.2094 H   0  0  0  0  0  0  0  0  0  0  0  0
   -2.9056   -4.2083   -0.7168 H   0  0  0  0  0  0  0  0  0  0  0  0
   -1.1982   -6.0374    1.0691 H   0  0  0  0  0  0  0  0  0  0  0  0
   -1.1883   -6.0088   -0.6880 H   0  0  0  0  0  0  0  0  0  0  0  0
   -3.5190   -6.9349    1.0902 H   0  0  0  0  0  0  0  0  0  0  0  0
   -2.4472   -7.9519    0.1747 H   0  0  0  0  0  0  0  0  0  0  0  0
   -3.2210   -6.9636   -1.9503 H   0  0  0  0  0  0  0  0  0  0  0  0
   -4.3233   -5.8673   -1.0462 H   0  0  0  0  0  0  0  0  0  0  0  0
   -4.9574   -6.2066   -3.2261 H   0  0  0  0  0  0  0  0  0  0  0  0
   -6.5770   -6.4597   -5.0179 H   0  0  0  0  0  0  0  0  0  0  0  0
   -8.3863   -9.7810   -2.9369 H   0  0  0  0  0  0  0  0  0  0  0  0
   -6.7136   -9.5528   -1.1408 H   0  0  0  0  0  0  0  0  0  0  0  0
   -8.7174  -10.1708   -5.0327 H   0  0  0  0  0  0  0  0  0  0  0  0
   -9.0664   -6.3103   -5.3927 H   0  0  0  0  0  0  0  0  0  0  0  0
   -9.7693   -7.3695   -6.5028 H   0  0  0  0  0  0  0  0  0  0  0  0
  1  2  2  0  0  0  0
  1  6  1  0  0  0  0
  1 26  1  0  0  0  0
  2  3  1  0  0  0  0
  2 27  1  0  0  0  0
  3  4  2  0  0  0  0
  3 10  1  0  0  0  0
  4  5  1  0  0  0  0
  4 28  1  0  0  0  0
  5  6  2  0  0  0  0
  5 29  1  0  0  0  0
  6  7  1  0  0  0  0
  7  8  2  0  0  0  0
  7  9  1  0  0  0  0
  8 30  1  0  0  0  0
  9 31  1  0  0  0  0
  9 32  1  0  0  0  0
 10 11  1  0  0  0  0
 11 12  1  0  0  0  0
 11 33  1  0  0  0  0
 11 34  1  0  0  0  0
 12 13  1  0  0  0  0
 12 35  1  0  0  0  0
 12 36  1  0  0  0  0
 13 14  1  0  0  0  0
 13 37  1  0  0  0  0
 13 38  1  0  0  0  0
 14 15  1  0  0  0  0
 14 39  1  0  0  0  0
 14 40  1  0  0  0  0
 15 16  1  0  0  0  0
 15 41  1  0  0  0  0
 15 42  1  0  0  0  0
 16 17  1  0  0  0  0
 17 18  2  0  0  0  0
 17 22  1  0  0  0  0
 18 19  1  0  0  0  0
 18 43  1  0  0  0  0
 19 20  2  0  0  0  0
 19 44  1  0  0  0  0
 20 21  1  0  0  0  0
 20 23  1  0  0  0  0
 21 22  2  0  0  0  0
 21 45  1  0  0  0  0
 22 46  1  0  0  0  0
 23 24  2  0  0  0  0
 23 25  1  0  0  0  0
 24 47  1  0  0  0  0
 25 48  1  0  0  0  0
 25 49  1  0  0  0  0
M  END
$$$$
Target_lig_999
 OpenBabel04172516573D

 70 72  0  0  1  0  0  0  0  0999 V2000
    0.9780   -4.5145    7.2304 N   0  0  0  0  0  0  0  0  0  0  0  0
    2.0664   -4.6225    6.2718 C   0  0  0  0  0  0  0  0  0  0  0  0
    3.1892   -5.5032    6.8154 C   0  0  0  0  0  0  0  0  0  0  0  0
    4.2986   -5.5648    5.7735 C   0  0  0  0  0  0  0  0  0  0  0  0
    5.4798   -6.4279    6.1971 C   0  0  0  0  0  0  0  0  0  0  0  0
    6.5152   -6.4800    5.0680 C   0  0  3  0  0  0  0  0  0  0  0  0
    7.1720   -5.1175    4.8251 C   0  0  0  0  0  0  0  0  0  0  0  0
    8.1431   -4.6607    5.4359 O   0  0  0  0  0  0  0  0  0  0  0  0
    6.5653   -4.5228    3.7645 O   0  0  0  0  0  0  0  0  0  0  0  0
    7.1117   -3.2548    3.4372 C   0  0  0  0  0  0  0  0  0  0  0  0
    6.5499   -2.2630    4.2806 O   0  0  0  0  0  0  0  0  0  0  0  0
    7.1201   -0.9842    4.0109 C   0  0  0  0  0  0  0  0  0  0  0  0
    6.5276    0.0353    4.9826 C   0  0  1  0  0  0  0  0  0  0  0  0
    6.9807   -0.2934    6.3209 O   0  0  0  0  0  0  0  0  0  0  0  0
    7.7744    0.7761    6.8178 C   0  0  2  0  0  0  0  0  0  0  0  0
    8.1850    1.6159    5.6159 C   0  0  0  0  0  0  0  0  0  0  0  0
    7.0163    1.4499    4.6802 C   0  0  2  0  0  0  0  0  0  0  0  0
    6.0157    2.4244    4.9789 O   0  0  0  0  0  0  0  0  0  0  0  0
    9.0249    0.3972    7.6286 C   0  0  0  0  0  0  0  0  0  0  0  0
    9.7432    1.2964    8.0604 O   0  0  0  0  0  0  0  0  0  0  0  0
    9.2399   -0.9690    7.7673 N   0  0  0  0  0  0  0  0  0  0  0  0
   10.2782   -1.5579    8.5362 C   0  0  0  0  0  0  0  0  0  0  0  0
   11.0301   -0.8183    9.4540 C   0  0  0  0  0  0  0  0  0  0  0  0
   12.0601   -1.4038   10.1882 C   0  0  0  0  0  0  0  0  0  0  0  0
   12.3438   -2.7546   10.0353 C   0  0  0  0  0  0  0  0  0  0  0  0
   11.5895   -3.5394    9.1575 C   0  0  0  0  0  0  0  0  0  0  0  0
   10.5531   -2.9302    8.4065 C   0  0  0  0  0  0  0  0  0  0  0  0
   11.8153   -4.9825    9.0893 C   0  0  0  0  0  0  0  0  0  0  0  0
   12.9742   -5.6426    9.4646 C   0  0  0  0  0  0  0  0  0  0  0  0
   12.7422   -7.3486    9.3730 S   0  0  0  0  0  0  0  0  0  0  0  0
   11.1692   -7.0675    8.7951 C   0  0  0  0  0  0  0  0  0  0  0  0
   10.8071   -5.8193    8.6756 N   0  0  0  0  0  0  0  0  0  0  0  0
   10.4337   -8.1804    8.4940 N   0  0  0  0  0  0  0  0  0  0  0  0
    9.1765   -8.0251    7.9760 C   0  0  0  0  0  0  0  0  0  0  0  0
    8.6022   -6.9536    7.7938 O   0  0  0  0  0  0  0  0  0  0  0  0
    8.5076   -9.3063    7.5519 C   0  0  0  0  0  0  0  0  0  0  0  0
    7.5680   -7.4333    5.4146 N   0  0  0  0  0  0  0  0  0  0  0  0
    0.2745   -3.8783    6.8584 H   0  0  0  0  0  0  0  0  0  0  0  0
    1.3268   -4.0847    8.0862 H   0  0  0  0  0  0  0  0  0  0  0  0
    2.4527   -3.6217    6.0456 H   0  0  0  0  0  0  0  0  0  0  0  0
    1.6825   -5.0451    5.3365 H   0  0  0  0  0  0  0  0  0  0  0  0
    2.8155   -6.5115    7.0320 H   0  0  0  0  0  0  0  0  0  0  0  0
    3.5809   -5.0898    7.7534 H   0  0  0  0  0  0  0  0  0  0  0  0
    4.6468   -4.5443    5.5809 H   0  0  0  0  0  0  0  0  0  0  0  0
    3.8926   -5.9554    4.8326 H   0  0  0  0  0  0  0  0  0  0  0  0
    5.1233   -7.4409    6.4316 H   0  0  0  0  0  0  0  0  0  0  0  0
    5.9180   -6.0257    7.1203 H   0  0  0  0  0  0  0  0  0  0  0  0
    6.0612   -6.8427    4.1403 H   0  0  0  0  0  0  0  0  0  0  0  0
    6.8298   -3.0473    2.4017 H   0  0  0  0  0  0  0  0  0  0  0  0
    8.2061   -3.2663    3.4943 H   0  0  0  0  0  0  0  0  0  0  0  0
    6.8795   -0.7091    2.9788 H   0  0  0  0  0  0  0  0  0  0  0  0
    8.2078   -1.0436    4.1348 H   0  0  0  0  0  0  0  0  0  0  0  0
    5.4337   -0.0327    4.9847 H   0  0  0  0  0  0  0  0  0  0  0  0
    7.1366    1.3578    7.4923 H   0  0  0  0  0  0  0  0  0  0  0  0
    9.0923    1.2119    5.1565 H   0  0  0  0  0  0  0  0  0  0  0  0
    8.3808    2.6555    5.9001 H   0  0  0  0  0  0  0  0  0  0  0  0
    7.2959    1.5972    3.6331 H   0  0  0  0  0  0  0  0  0  0  0  0
    5.6835    2.2720    5.8811 H   0  0  0  0  0  0  0  0  0  0  0  0
    8.6329   -1.5881    7.2343 H   0  0  0  0  0  0  0  0  0  0  0  0
   10.8209    0.2280    9.6528 H   0  0  0  0  0  0  0  0  0  0  0  0
   12.6228   -0.8029   10.8989 H   0  0  0  0  0  0  0  0  0  0  0  0
   13.1309   -3.1857   10.6466 H   0  0  0  0  0  0  0  0  0  0  0  0
    9.9655   -3.5435    7.7215 H   0  0  0  0  0  0  0  0  0  0  0  0
   13.9154   -5.2392    9.8060 H   0  0  0  0  0  0  0  0  0  0  0  0
   10.8419   -9.0875    8.6487 H   0  0  0  0  0  0  0  0  0  0  0  0
    8.9155  -10.1757    8.0635 H   0  0  0  0  0  0  0  0  0  0  0  0
    8.6342   -9.4488    6.4741 H   0  0  0  0  0  0  0  0  0  0  0  0
    7.4398   -9.2211    7.7807 H   0  0  0  0  0  0  0  0  0  0  0  0
    7.9410   -7.0478    6.3078 H   0  0  0  0  0  0  0  0  0  0  0  0
    8.3605   -7.3189    4.7922 H   0  0  0  0  0  0  0  0  0  0  0  0
  1  2  1  0  0  0  0
  1 38  1  0  0  0  0
  1 39  1  0  0  0  0
  2  3  1  0  0  0  0
  2 40  1  0  0  0  0
  2 41  1  0  0  0  0
  3  4  1  0  0  0  0
  3 42  1  0  0  0  0
  3 43  1  0  0  0  0
  4  5  1  0  0  0  0
  4 44  1  0  0  0  0
  4 45  1  0  0  0  0
  5  6  1  0  0  0  0
  5 46  1  0  0  0  0
  5 47  1  0  0  0  0
  6  7  1  0  0  0  0
  6 37  1  0  0  0  0
  6 48  1  0  0  0  0
  7  8  2  0  0  0  0
  7  9  1  0  0  0  0
  9 10  1  0  0  0  0
 10 11  1  0  0  0  0
 10 49  1  0  0  0  0
 10 50  1  0  0  0  0
 11 12  1  0  0  0  0
 12 13  1  0  0  0  0
 12 51  1  0  0  0  0
 12 52  1  0  0  0  0
 13 14  1  0  0  0  0
 13 17  1  0  0  0  0
 13 53  1  6  0  0  0
 14 15  1  0  0  0  0
 15 16  1  0  0  0  0
 15 19  1  0  0  0  0
 15 54  1  1  0  0  0
 16 17  1  0  0  0  0
 16 55  1  0  0  0  0
 16 56  1  0  0  0  0
 17 18  1  0  0  0  0
 17 57  1  6  0  0  0
 18 58  1  0  0  0  0
 19 20  2  0  0  0  0
 19 21  1  0  0  0  0
 21 22  1  0  0  0  0
 21 59  1  0  0  0  0
 22 23  1  0  0  0  0
 22 27  2  0  0  0  0
 23 24  2  0  0  0  0
 23 60  1  0  0  0  0
 24 25  1  0  0  0  0
 24 61  1  0  0  0  0
 25 26  2  0  0  0  0
 25 62  1  0  0  0  0
 26 27  1  0  0  0  0
 26 28  1  0  0  0  0
 27 63  1  0  0  0  0
 28 29  2  0  0  0  0
 28 32  1  0  0  0  0
 29 30  1  0  0  0  0
 29 64  1  0  0  0  0
 30 31  1  0  0  0  0
 31 32  2  0  0  0  0
 31 33  1  0  0  0  0
 33 34  1  0  0  0  0
 33 65  1  0  0  0  0
 34 35  2  0  0  0  0
 34 36  1  0  0  0  0
 36 66  1  0  0  0  0
 36 67  1  0  0  0  0
 36 68  1  0  0  0  0
 37 69  1  0  0  0  0
 37 70  1  0  0  0  0
M  END
$$$$
Target_lig_1000
 OpenBabel04172516573D

 95 97  0  0  1  0  0  0  0  0999 V2000
   11.3435   -1.2909   -8.2085 N   0  0  0  0  0  0  0  0  0  0  0  0
    9.9961   -1.7759   -7.9559 C   0  0  0  0  0  0  0  0  0  0  0  0
    8.9775   -0.6848   -8.2558 C   0  0  0  0  0  0  0  0  0  0  0  0
    7.5875   -1.2149   -7.9462 C   0  0  0  0  0  0  0  0  0  0  0  0
    6.5247   -0.1529   -8.1754 C   0  0  0  0  0  0  0  0  0  0  0  0
    5.1382   -0.6608   -7.7942 C   0  0  3  0  0  0  0  0  0  0  0  0
    5.0846   -0.9749   -6.2820 C   0  0  0  0  0  0  0  0  0  0  0  0
    4.8542   -0.1443   -5.4125 O   0  0  0  0  0  0  0  0  0  0  0  0
    5.3909   -2.2846   -6.0612 O   0  0  0  0  0  0  0  0  0  0  0  0
    5.4787   -2.7006   -4.6924 C   0  0  0  0  0  0  0  0  0  0  0  0
    6.8470   -2.7883   -4.2525 O   0  0  0  0  0  0  0  0  0  0  0  0
    6.9527   -3.2222   -2.8917 C   0  0  1  0  0  0  0  0  0  0  0  0
    6.4535   -4.6447   -2.7051 C   0  0  0  0  0  0  0  0  0  0  0  0
    7.1172   -5.0699   -1.4064 C   0  0  1  0  0  0  0  0  0  0  0  0
    8.3494   -4.3610   -1.3234 O   0  0  0  0  0  0  0  0  0  0  0  0
    8.3979   -3.3655   -2.3807 C   0  0  2  0  0  0  0  0  0  0  0  0
    9.0071   -2.0912   -1.7802 C   0  0  0  0  0  0  0  0  0  0  0  0
   10.3483   -2.3749   -1.3452 O   0  0  0  0  0  0  0  0  0  0  0  0
   10.9049   -1.3217   -0.5652 C   0  0  0  0  0  0  0  0  0  0  0  0
   12.1810   -1.6900   -0.0271 O   0  0  0  0  0  0  0  0  0  0  0  0
   12.1389   -2.2953    1.1936 C   0  0  0  0  0  0  0  0  0  0  0  0
   11.1169   -2.4938    1.8457 O   0  0  0  0  0  0  0  0  0  0  0  0
   13.5594   -2.6624    1.6761 C   0  0  3  0  0  0  0  0  0  0  0  0
   13.8424   -1.9634    3.0224 C   0  0  0  0  0  0  0  0  0  0  0  0
   15.2352   -2.2061    3.6261 C   0  0  0  0  0  0  0  0  0  0  0  0
   16.3838   -1.7288    2.7301 C   0  0  0  0  0  0  0  0  0  0  0  0
   17.7761   -1.9852    3.3164 C   0  0  0  0  0  0  0  0  0  0  0  0
   17.9477   -3.3933    3.6572 N   0  0  0  0  0  0  0  0  0  0  0  0
   13.6734   -4.1296    1.7818 N   0  0  0  0  0  0  0  0  0  0  0  0
    6.1897   -4.8091   -0.2052 C   0  0  0  0  0  0  0  0  0  0  0  0
    4.9700   -4.8345   -0.3483 O   0  0  0  0  0  0  0  0  0  0  0  0
    6.8551   -4.5823    0.9876 N   0  0  0  0  0  0  0  0  0  0  0  0
    6.2449   -4.4378    2.2549 C   0  0  0  0  0  0  0  0  0  0  0  0
    4.9147   -4.8047    2.4991 C   0  0  0  0  0  0  0  0  0  0  0  0
    4.3382   -4.6383    3.7567 C   0  0  0  0  0  0  0  0  0  0  0  0
    5.0872   -4.1135    4.8027 C   0  0  0  0  0  0  0  0  0  0  0  0
    6.4275   -3.7679    4.6017 C   0  0  0  0  0  0  0  0  0  0  0  0
    7.0016   -3.9382    3.3209 C   0  0  0  0  0  0  0  0  0  0  0  0
    7.2530   -3.3137    5.7080 C   0  0  0  0  0  0  0  0  0  0  0  0
    6.8019   -2.6336    6.8256 C   0  0  0  0  0  0  0  0  0  0  0  0
    8.1165   -2.3449    7.9006 S   0  0  0  0  0  0  0  0  0  0  0  0
    9.1407   -3.1845    6.8270 C   0  0  0  0  0  0  0  0  0  0  0  0
    8.6024   -3.6006    5.7148 N   0  0  0  0  0  0  0  0  0  0  0  0
   10.4279   -3.3420    7.2525 N   0  0  0  0  0  0  0  0  0  0  0  0
   11.3002   -4.1724    6.5786 C   0  0  0  0  0  0  0  0  0  0  0  0
   11.0583   -4.8753    5.6068 O   0  0  0  0  0  0  0  0  0  0  0  0
   12.6824   -4.1821    7.1753 C   0  0  0  0  0  0  0  0  0  0  0  0
    4.2048    0.4234   -8.1619 N   0  0  0  0  0  0  0  0  0  0  0  0
   12.0091   -2.0047   -7.9162 H   0  0  0  0  0  0  0  0  0  0  0  0
   11.5232   -0.4769   -7.6212 H   0  0  0  0  0  0  0  0  0  0  0  0
    9.9115   -2.0899   -6.9095 H   0  0  0  0  0  0  0  0  0  0  0  0
    9.7982   -2.6536   -8.5817 H   0  0  0  0  0  0  0  0  0  0  0  0
    9.0359   -0.3716   -9.3049 H   0  0  0  0  0  0  0  0  0  0  0  0
    9.1759    0.2009   -7.6377 H   0  0  0  0  0  0  0  0  0  0  0  0
    7.5786   -1.5380   -6.9006 H   0  0  0  0  0  0  0  0  0  0  0  0
    7.3677   -2.0948   -8.5627 H   0  0  0  0  0  0  0  0  0  0  0  0
    6.5347    0.1430   -9.2333 H   0  0  0  0  0  0  0  0  0  0  0  0
    6.7684    0.7436   -7.5899 H   0  0  0  0  0  0  0  0  0  0  0  0
    4.8695   -1.5580   -8.3644 H   0  0  0  0  0  0  0  0  0  0  0  0
    5.0287   -3.6985   -4.6672 H   0  0  0  0  0  0  0  0  0  0  0  0
    4.9016   -2.0546   -4.0218 H   0  0  0  0  0  0  0  0  0  0  0  0
    6.3993   -2.5273   -2.2473 H   0  0  0  0  0  0  0  0  0  0  0  0
    6.7930   -5.2751   -3.5362 H   0  0  0  0  0  0  0  0  0  0  0  0
    5.3614   -4.7036   -2.6928 H   0  0  0  0  0  0  0  0  0  0  0  0
    7.3273   -6.1453   -1.4141 H   0  0  0  0  0  0  0  0  0  0  0  0
    9.0602   -3.7535   -3.1655 H   0  0  0  0  0  0  0  0  0  0  0  0
    8.4144   -1.7814   -0.9113 H   0  0  0  0  0  0  0  0  0  0  0  0
    9.0349   -1.2824   -2.5166 H   0  0  0  0  0  0  0  0  0  0  0  0
   10.2174   -1.0002    0.2272 H   0  0  0  0  0  0  0  0  0  0  0  0
   11.0765   -0.4622   -1.2215 H   0  0  0  0  0  0  0  0  0  0  0  0
   14.2730   -2.3159    0.9216 H   0  0  0  0  0  0  0  0  0  0  0  0
   13.0980   -2.2868    3.7633 H   0  0  0  0  0  0  0  0  0  0  0  0
   13.6934   -0.8827    2.9038 H   0  0  0  0  0  0  0  0  0  0  0  0
   15.3441   -3.2713    3.8571 H   0  0  0  0  0  0  0  0  0  0  0  0
   15.2954   -1.6814    4.5882 H   0  0  0  0  0  0  0  0  0  0  0  0
   16.2729   -0.6528    2.5459 H   0  0  0  0  0  0  0  0  0  0  0  0
   16.3291   -2.2235    1.7541 H   0  0  0  0  0  0  0  0  0  0  0  0
   17.9440   -1.3644    4.2035 H   0  0  0  0  0  0  0  0  0  0  0  0
   18.5270   -1.6922    2.5726 H   0  0  0  0  0  0  0  0  0  0  0  0
   17.5625   -3.5613    4.5854 H   0  0  0  0  0  0  0  0  0  0  0  0
   18.9291   -3.6294    3.7553 H   0  0  0  0  0  0  0  0  0  0  0  0
   12.9734   -4.4659    2.4495 H   0  0  0  0  0  0  0  0  0  0  0  0
   14.5814   -4.3834    2.1675 H   0  0  0  0  0  0  0  0  0  0  0  0
    7.8577   -4.4044    0.9188 H   0  0  0  0  0  0  0  0  0  0  0  0
    4.3018   -5.2577    1.7276 H   0  0  0  0  0  0  0  0  0  0  0  0
    3.3076   -4.9424    3.9185 H   0  0  0  0  0  0  0  0  0  0  0  0
    4.6220   -4.0234    5.7803 H   0  0  0  0  0  0  0  0  0  0  0  0
    8.0492   -3.6741    3.1739 H   0  0  0  0  0  0  0  0  0  0  0  0
    5.8029   -2.3002    7.0676 H   0  0  0  0  0  0  0  0  0  0  0  0
   10.6778   -2.9093    8.1264 H   0  0  0  0  0  0  0  0  0  0  0  0
   12.7806   -3.4783    8.0050 H   0  0  0  0  0  0  0  0  0  0  0  0
   13.3971   -3.9097    6.3969 H   0  0  0  0  0  0  0  0  0  0  0  0
   12.8982   -5.1905    7.5400 H   0  0  0  0  0  0  0  0  0  0  0  0
    4.2066    1.1218   -7.4149 H   0  0  0  0  0  0  0  0  0  0  0  0
    3.2619    0.0648   -8.2269 H   0  0  0  0  0  0  0  0  0  0  0  0
  1  2  1  0  0  0  0
  1 49  1  0  0  0  0
  1 50  1  0  0  0  0
  2  3  1  0  0  0  0
  2 51  1  0  0  0  0
  2 52  1  0  0  0  0
  3  4  1  0  0  0  0
  3 53  1  0  0  0  0
  3 54  1  0  0  0  0
  4  5  1  0  0  0  0
  4 55  1  0  0  0  0
  4 56  1  0  0  0  0
  5  6  1  0  0  0  0
  5 57  1  0  0  0  0
  5 58  1  0  0  0  0
  6  7  1  0  0  0  0
  6 48  1  0  0  0  0
  6 59  1  0  0  0  0
  7  8  2  0  0  0  0
  7  9  1  0  0  0  0
  9 10  1  0  0  0  0
 10 11  1  0  0  0  0
 10 60  1  0  0  0  0
 10 61  1  0  0  0  0
 12 13  1  0  0  0  0
 12 16  1  0  0  0  0
 12 11  1  0  0  0  0
 12 62  1  1  0  0  0
 13 14  1  0  0  0  0
 13 63  1  0  0  0  0
 13 64  1  0  0  0  0
 14 15  1  0  0  0  0
 14 30  1  0  0  0  0
 14 65  1  6  0  0  0
 15 16  1  0  0  0  0
 16 17  1  0  0  0  0
 16 66  1  6  0  0  0
 17 18  1  0  0  0  0
 17 67  1  0  0  0  0
 17 68  1  0  0  0  0
 18 19  1  0  0  0  0
 19 20  1  0  0  0  0
 19 69  1  0  0  0  0
 19 70  1  0  0  0  0
 20 21  1  0  0  0  0
 21 22  2  0  0  0  0
 21 23  1  0  0  0  0
 23 24  1  0  0  0  0
 23 29  1  0  0  0  0
 23 71  1  0  0  0  0
 24 25  1  0  0  0  0
 24 72  1  0  0  0  0
 24 73  1  0  0  0  0
 25 26  1  0  0  0  0
 25 74  1  0  0  0  0
 25 75  1  0  0  0  0
 26 27  1  0  0  0  0
 26 76  1  0  0  0  0
 26 77  1  0  0  0  0
 27 28  1  0  0  0  0
 27 78  1  0  0  0  0
 27 79  1  0  0  0  0
 28 80  1  0  0  0  0
 28 81  1  0  0  0  0
 29 82  1  0  0  0  0
 29 83  1  0  0  0  0
 30 31  2  0  0  0  0
 30 32  1  0  0  0  0
 32 33  1  0  0  0  0
 32 84  1  0  0  0  0
 33 34  1  0  0  0  0
 33 38  2  0  0  0  0
 34 35  2  0  0  0  0
 34 85  1  0  0  0  0
 35 36  1  0  0  0  0
 35 86  1  0  0  0  0
 36 37  2  0  0  0  0
 36 87  1  0  0  0  0
 37 38  1  0  0  0  0
 37 39  1  0  0  0  0
 38 88  1  0  0  0  0
 39 40  2  0  0  0  0
 39 43  1  0  0  0  0
 40 41  1  0  0  0  0
 40 89  1  0  0  0  0
 41 42  1  0  0  0  0
 42 43  2  0  0  0  0
 42 44  1  0  0  0  0
 44 45  1  0  0  0  0
 44 90  1  0  0  0  0
 45 46  2  0  0  0  0
 45 47  1  0  0  0  0
 47 91  1  0  0  0  0
 47 92  1  0  0  0  0
 47 93  1  0  0  0  0
 48 94  1  0  0  0  0
 48 95  1  0  0  0  0
M  END
$$$$
Target_lig_1001
 OpenBabel04172516573D

 72 74  0  0  1  0  0  0  0  0999 V2000
    3.4595   -5.1203   -1.3310 C   0  0  0  0  0  0  0  0  0  0  0  0
    4.4658   -4.0068   -1.4539 C   0  0  0  0  0  0  0  0  0  0  0  0
    5.6147   -4.2433   -1.8073 O   0  0  0  0  0  0  0  0  0  0  0  0
    3.9332   -2.7864   -1.1159 N   0  0  0  0  0  0  0  0  0  0  0  0
    4.6681   -1.6359   -1.1790 C   0  0  0  0  0  0  0  0  0  0  0  0
    3.8954   -0.2955   -0.4599 S   0  0  0  0  0  0  0  0  0  0  0  0
    5.2731    0.6557   -0.8279 C   0  0  0  0  0  0  0  0  0  0  0  0
    6.1874   -0.0914   -1.5523 C   0  0  0  0  0  0  0  0  0  0  0  0
    5.8475   -1.4240   -1.7029 N   0  0  0  0  0  0  0  0  0  0  0  0
    7.4008    0.4767   -2.1367 C   0  0  0  0  0  0  0  0  0  0  0  0
    7.3806    1.8037   -2.5976 C   0  0  0  0  0  0  0  0  0  0  0  0
    8.5114    2.3756   -3.1623 C   0  0  0  0  0  0  0  0  0  0  0  0
    9.6888    1.6352   -3.2471 C   0  0  0  0  0  0  0  0  0  0  0  0
    9.7523    0.3220   -2.7720 C   0  0  0  0  0  0  0  0  0  0  0  0
    8.5849   -0.2754   -2.2591 C   0  0  0  0  0  0  0  0  0  0  0  0
   10.9682   -0.4114   -2.7819 N   0  0  0  0  0  0  0  0  0  0  0  0
   12.2322    0.1473   -2.9097 C   0  0  0  0  0  0  0  0  0  0  0  0
   12.4892    1.3468   -3.0163 O   0  0  0  0  0  0  0  0  0  0  0  0
   13.3946   -0.8486   -2.8406 C   0  0  1  0  0  0  0  0  0  0  0  0
   14.2938   -0.5024   -1.6611 C   0  0  0  0  0  0  0  0  0  0  0  0
   15.0254   -1.7978   -1.4208 C   0  0  1  0  0  0  0  0  0  0  0  0
   13.9810   -2.8552   -1.7802 C   0  0  2  0  0  0  0  0  0  0  0  0
   13.0530   -2.2248   -2.7022 O   0  0  0  0  0  0  0  0  0  0  0  0
   13.1943   -3.3277   -0.5530 C   0  0  0  0  0  0  0  0  0  0  0  0
   12.3224   -4.3924   -0.9393 O   0  0  0  0  0  0  0  0  0  0  0  0
   11.4758   -4.7952    0.1303 C   0  0  0  0  0  0  0  0  0  0  0  0
   10.5264   -5.7630   -0.3121 O   0  0  0  0  0  0  0  0  0  0  0  0
    9.4161   -5.2178   -0.8895 C   0  0  0  0  0  0  0  0  0  0  0  0
    9.1835   -4.0155   -0.9535 O   0  0  0  0  0  0  0  0  0  0  0  0
    8.4677   -6.3370   -1.3697 C   0  0  3  0  0  0  0  0  0  0  0  0
    7.4800   -6.6793   -0.2379 C   0  0  0  0  0  0  0  0  0  0  0  0
    6.5109   -7.8191   -0.5794 C   0  0  0  0  0  0  0  0  0  0  0  0
    5.5312   -8.1024    0.5624 C   0  0  0  0  0  0  0  0  0  0  0  0
    4.5590   -9.0895    0.0934 N   0  0  0  0  0  0  0  0  0  0  0  0
    3.6726   -9.5154    0.9109 C   0  0  0  0  0  0  0  0  0  0  0  0
    3.4741   -9.2025    2.2098 N   0  0  0  0  0  0  0  0  0  0  0  0
    2.7509  -10.4161    0.5065 N   0  0  0  0  0  0  0  0  0  0  0  0
    7.7980   -5.9045   -2.6104 N   0  0  0  0  0  0  0  0  0  0  0  0
   16.1611   -1.8653   -2.2851 O   0  0  0  0  0  0  0  0  0  0  0  0
    3.9746   -6.0812   -1.4082 H   0  0  0  0  0  0  0  0  0  0  0  0
    2.7275   -5.0446   -2.1387 H   0  0  0  0  0  0  0  0  0  0  0  0
    2.9565   -5.0770   -0.3610 H   0  0  0  0  0  0  0  0  0  0  0  0
    3.0004   -2.7100   -0.7404 H   0  0  0  0  0  0  0  0  0  0  0  0
    5.3241    1.6938   -0.5332 H   0  0  0  0  0  0  0  0  0  0  0  0
    6.4760    2.4024   -2.5453 H   0  0  0  0  0  0  0  0  0  0  0  0
    8.4851    3.3944   -3.5385 H   0  0  0  0  0  0  0  0  0  0  0  0
   10.5383    2.1149   -3.7153 H   0  0  0  0  0  0  0  0  0  0  0  0
    8.5968   -1.3115   -1.9209 H   0  0  0  0  0  0  0  0  0  0  0  0
   10.9285   -1.4090   -2.5687 H   0  0  0  0  0  0  0  0  0  0  0  0
   13.9460   -0.7509   -3.7842 H   0  0  0  0  0  0  0  0  0  0  0  0
   13.6887   -0.2454   -0.7826 H   0  0  0  0  0  0  0  0  0  0  0  0
   14.9516    0.3439   -1.8846 H   0  0  0  0  0  0  0  0  0  0  0  0
   15.4018   -1.8860   -0.3977 H   0  0  0  0  0  0  0  0  0  0  0  0
   14.4248   -3.7106   -2.3015 H   0  0  0  0  0  0  0  0  0  0  0  0
   12.5966   -2.5024   -0.1488 H   0  0  0  0  0  0  0  0  0  0  0  0
   13.8787   -3.6977    0.2183 H   0  0  0  0  0  0  0  0  0  0  0  0
   10.9802   -3.9319    0.5949 H   0  0  0  0  0  0  0  0  0  0  0  0
   12.0897   -5.2742    0.8996 H   0  0  0  0  0  0  0  0  0  0  0  0
    9.0725   -7.2170   -1.6182 H   0  0  0  0  0  0  0  0  0  0  0  0
    6.9102   -5.7834    0.0399 H   0  0  0  0  0  0  0  0  0  0  0  0
    8.0508   -6.9583    0.6582 H   0  0  0  0  0  0  0  0  0  0  0  0
    7.0765   -8.7297   -0.8117 H   0  0  0  0  0  0  0  0  0  0  0  0
    5.9326   -7.5721   -1.4758 H   0  0  0  0  0  0  0  0  0  0  0  0
    5.0147   -7.1748    0.8362 H   0  0  0  0  0  0  0  0  0  0  0  0
    6.0791   -8.4724    1.4366 H   0  0  0  0  0  0  0  0  0  0  0  0
    3.9500   -8.3653    2.5185 H   0  0  0  0  0  0  0  0  0  0  0  0
    2.4957   -9.1927    2.4706 H   0  0  0  0  0  0  0  0  0  0  0  0
    3.0294  -10.8302   -0.3785 H   0  0  0  0  0  0  0  0  0  0  0  0
    2.5475  -11.1282    1.1958 H   0  0  0  0  0  0  0  0  0  0  0  0
    7.2629   -5.0441   -2.3969 H   0  0  0  0  0  0  0  0  0  0  0  0
    7.0828   -6.5744   -2.8800 H   0  0  0  0  0  0  0  0  0  0  0  0
   15.8548   -1.9472   -3.2057 H   0  0  0  0  0  0  0  0  0  0  0  0
  1  2  1  0  0  0  0
  1 40  1  0  0  0  0
  1 41  1  0  0  0  0
  1 42  1  0  0  0  0
  2  3  2  0  0  0  0
  2  4  1  0  0  0  0
  4  5  1  0  0  0  0
  4 43  1  0  0  0  0
  5  6  1  0  0  0  0
  5  9  2  0  0  0  0
  6  7  1  0  0  0  0
  7  8  2  0  0  0  0
  7 44  1  0  0  0  0
  8  9  1  0  0  0  0
  8 10  1  0  0  0  0
 10 11  1  0  0  0  0
 10 15  2  0  0  0  0
 11 12  2  0  0  0  0
 11 45  1  0  0  0  0
 12 13  1  0  0  0  0
 12 46  1  0  0  0  0
 13 14  2  0  0  0  0
 13 47  1  0  0  0  0
 14 15  1  0  0  0  0
 14 16  1  0  0  0  0
 15 48  1  0  0  0  0
 16 17  1  0  0  0  0
 16 49  1  0  0  0  0
 17 18  2  0  0  0  0
 17 19  1  0  0  0  0
 19 20  1  0  0  0  0
 19 23  1  0  0  0  0
 19 50  1  6  0  0  0
 20 21  1  0  0  0  0
 20 51  1  0  0  0  0
 20 52  1  0  0  0  0
 21 22  1  0  0  0  0
 21 39  1  0  0  0  0
 21 53  1  1  0  0  0
 22 23  1  0  0  0  0
 22 24  1  0  0  0  0
 22 54  1  6  0  0  0
 24 25  1  0  0  0  0
 24 55  1  0  0  0  0
 24 56  1  0  0  0  0
 25 26  1  0  0  0  0
 26 27  1  0  0  0  0
 26 57  1  0  0  0  0
 26 58  1  0  0  0  0
 27 28  1  0  0  0  0
 28 29  2  0  0  0  0
 28 30  1  0  0  0  0
 30 31  1  0  0  0  0
 30 38  1  0  0  0  0
 30 59  1  0  0  0  0
 31 32  1  0  0  0  0
 31 60  1  0  0  0  0
 31 61  1  0  0  0  0
 32 33  1  0  0  0  0
 32 62  1  0  0  0  0
 32 63  1  0  0  0  0
 33 34  1  0  0  0  0
 33 64  1  0  0  0  0
 33 65  1  0  0  0  0
 34 35  2  0  0  0  0
 35 36  1  0  0  0  0
 35 37  1  0  0  0  0
 36 66  1  0  0  0  0
 36 67  1  0  0  0  0
 37 68  1  0  0  0  0
 37 69  1  0  0  0  0
 38 70  1  0  0  0  0
 38 71  1  0  0  0  0
 39 72  1  0  0  0  0
M  END
$$$$
Target_lig_1002
 OpenBabel04172516573D

 99101  0  0  1  0  0  0  0  0999 V2000
   17.2086   -6.7661    8.6989 C   0  0  0  0  0  0  0  0  0  0  0  0
   16.7126   -6.0588    7.4667 C   0  0  0  0  0  0  0  0  0  0  0  0
   16.0079   -5.0614    7.5690 O   0  0  0  0  0  0  0  0  0  0  0  0
   17.1222   -6.6837    6.3074 N   0  0  0  0  0  0  0  0  0  0  0  0
   16.7967   -6.1936    5.0694 C   0  0  0  0  0  0  0  0  0  0  0  0
   17.0543   -7.2803    3.7777 S   0  0  0  0  0  0  0  0  0  0  0  0
   16.4064   -6.1131    2.6845 C   0  0  0  0  0  0  0  0  0  0  0  0
   16.1299   -4.9425    3.3645 C   0  0  0  0  0  0  0  0  0  0  0  0
   16.3291   -5.0197    4.7397 N   0  0  0  0  0  0  0  0  0  0  0  0
   15.7575   -3.6726    2.7403 C   0  0  0  0  0  0  0  0  0  0  0  0
   16.1004   -2.4916    3.4262 C   0  0  0  0  0  0  0  0  0  0  0  0
   15.8248   -1.2501    2.8886 C   0  0  0  0  0  0  0  0  0  0  0  0
   15.2086   -1.1548    1.6453 C   0  0  0  0  0  0  0  0  0  0  0  0
   14.8582   -2.2993    0.9195 C   0  0  0  0  0  0  0  0  0  0  0  0
   15.1212   -3.5636    1.4860 C   0  0  0  0  0  0  0  0  0  0  0  0
   14.2688   -2.2229   -0.3689 N   0  0  0  0  0  0  0  0  0  0  0  0
   14.0291   -1.0669   -1.0986 C   0  0  0  0  0  0  0  0  0  0  0  0
   14.2576    0.0862   -0.7406 O   0  0  0  0  0  0  0  0  0  0  0  0
   13.4700   -1.3163   -2.5082 C   0  0  1  0  0  0  0  0  0  0  0  0
   14.3817   -0.7012   -3.5596 C   0  0  0  0  0  0  0  0  0  0  0  0
   15.3399   -1.8352   -3.8754 C   0  0  1  0  0  0  0  0  0  0  0  0
   14.4149   -3.0432   -3.7460 C   0  0  2  0  0  0  0  0  0  0  0  0
   13.3765   -2.7068   -2.8052 O   0  0  0  0  0  0  0  0  0  0  0  0
   15.1190   -4.3084   -3.2410 C   0  0  0  0  0  0  0  0  0  0  0  0
   14.2168   -5.4112   -3.0499 O   0  0  0  0  0  0  0  0  0  0  0  0
   13.6023   -5.8406   -4.2659 C   0  0  0  0  0  0  0  0  0  0  0  0
   12.7043   -6.9205   -4.0141 O   0  0  0  0  0  0  0  0  0  0  0  0
   11.4156   -6.6860   -4.3874 C   0  0  0  0  0  0  0  0  0  0  0  0
   10.9833   -5.6349   -4.8514 O   0  0  0  0  0  0  0  0  0  0  0  0
   10.5419   -7.9244   -4.1328 C   0  0  3  0  0  0  0  0  0  0  0  0
    9.9600   -7.8361   -2.7134 C   0  0  0  0  0  0  0  0  0  0  0  0
    9.0953   -9.0443   -2.3518 C   0  0  0  0  0  0  0  0  0  0  0  0
    8.5247   -8.9358   -0.9424 C   0  0  0  0  0  0  0  0  0  0  0  0
    7.6992  -10.1165   -0.7235 N   0  0  0  0  0  0  0  0  0  0  0  0
    7.1294  -10.2530    0.4136 C   0  0  0  0  0  0  0  0  0  0  0  0
    7.1716   -9.4405    1.4881 N   0  0  0  0  0  0  0  0  0  0  0  0
    6.3200  -11.3094    0.6056 N   0  0  0  0  0  0  0  0  0  0  0  0
    9.4879   -7.9814   -5.1721 N   0  0  0  0  0  0  0  0  0  0  0  0
   15.8913   -1.7847   -5.1900 O   0  0  0  0  0  0  0  0  0  0  0  0
   16.7287   -0.6464   -5.4013 C   0  0  0  0  0  0  0  0  0  0  0  0
   17.2349   -0.6548   -6.7390 O   0  0  0  0  0  0  0  0  0  0  0  0
   16.9145    0.4433   -7.4746 C   0  0  0  0  0  0  0  0  0  0  0  0
   16.1925    1.3616   -7.0969 O   0  0  0  0  0  0  0  0  0  0  0  0
   17.5502    0.3907   -8.8704 C   0  0  3  0  0  0  0  0  0  0  0  0
   16.5882   -0.3178   -9.8354 C   0  0  0  0  0  0  0  0  0  0  0  0
   17.0973   -0.4414  -11.2770 C   0  0  0  0  0  0  0  0  0  0  0  0
   18.3950   -1.2383  -11.3797 C   0  0  0  0  0  0  0  0  0  0  0  0
   18.7794   -1.3029  -12.7861 N   0  0  0  0  0  0  0  0  0  0  0  0
   19.8742   -1.9015  -13.0736 C   0  0  0  0  0  0  0  0  0  0  0  0
   20.7636   -2.5166  -12.2607 N   0  0  0  0  0  0  0  0  0  0  0  0
   20.3055   -1.9489  -14.3529 N   0  0  0  0  0  0  0  0  0  0  0  0
   17.8404    1.7739   -9.3103 N   0  0  0  0  0  0  0  0  0  0  0  0
   16.6878   -6.3683    9.5757 H   0  0  0  0  0  0  0  0  0  0  0  0
   18.2810   -6.5914    8.8134 H   0  0  0  0  0  0  0  0  0  0  0  0
   17.0043   -7.8385    8.6373 H   0  0  0  0  0  0  0  0  0  0  0  0
   17.5798   -7.5810    6.3401 H   0  0  0  0  0  0  0  0  0  0  0  0
   16.3318   -6.3273    1.6293 H   0  0  0  0  0  0  0  0  0  0  0  0
   16.5990   -2.5460    4.3956 H   0  0  0  0  0  0  0  0  0  0  0  0
   16.0911   -0.3438    3.4281 H   0  0  0  0  0  0  0  0  0  0  0  0
   15.0112   -0.1544    1.2777 H   0  0  0  0  0  0  0  0  0  0  0  0
   14.8288   -4.4607    0.9445 H   0  0  0  0  0  0  0  0  0  0  0  0
   14.0041   -3.0929   -0.8246 H   0  0  0  0  0  0  0  0  0  0  0  0
   12.4667   -0.8761   -2.5382 H   0  0  0  0  0  0  0  0  0  0  0  0
   14.9060    0.1970   -3.2188 H   0  0  0  0  0  0  0  0  0  0  0  0
   13.8090   -0.4230   -4.4527 H   0  0  0  0  0  0  0  0  0  0  0  0
   16.1488   -1.8806   -3.1352 H   0  0  0  0  0  0  0  0  0  0  0  0
   13.9327   -3.2197   -4.7125 H   0  0  0  0  0  0  0  0  0  0  0  0
   15.5419   -4.1096   -2.2495 H   0  0  0  0  0  0  0  0  0  0  0  0
   15.9415   -4.6107   -3.8957 H   0  0  0  0  0  0  0  0  0  0  0  0
   14.3836   -6.2042   -4.9431 H   0  0  0  0  0  0  0  0  0  0  0  0
   13.0978   -5.0067   -4.7509 H   0  0  0  0  0  0  0  0  0  0  0  0
   11.1622   -8.8177   -4.2423 H   0  0  0  0  0  0  0  0  0  0  0  0
    9.3717   -6.9159   -2.6080 H   0  0  0  0  0  0  0  0  0  0  0  0
   10.7837   -7.7548   -1.9929 H   0  0  0  0  0  0  0  0  0  0  0  0
    9.6867   -9.9643   -2.4415 H   0  0  0  0  0  0  0  0  0  0  0  0
    8.2546   -9.1419   -3.0474 H   0  0  0  0  0  0  0  0  0  0  0  0
    7.9202   -8.0245   -0.8601 H   0  0  0  0  0  0  0  0  0  0  0  0
    9.3430   -8.8899   -0.2152 H   0  0  0  0  0  0  0  0  0  0  0  0
    7.8916   -8.7321    1.5094 H   0  0  0  0  0  0  0  0  0  0  0  0
    6.9400   -9.8388    2.3846 H   0  0  0  0  0  0  0  0  0  0  0  0
    6.3060  -11.9636   -0.1716 H   0  0  0  0  0  0  0  0  0  0  0  0
    6.2209  -11.7214    1.5174 H   0  0  0  0  0  0  0  0  0  0  0  0
    8.9926   -7.0859   -5.1662 H   0  0  0  0  0  0  0  0  0  0  0  0
    8.7961   -8.6893   -4.9364 H   0  0  0  0  0  0  0  0  0  0  0  0
   17.5862   -0.7078   -4.7240 H   0  0  0  0  0  0  0  0  0  0  0  0
   16.1738    0.2650   -5.1682 H   0  0  0  0  0  0  0  0  0  0  0  0
   18.5036   -0.1406   -8.7883 H   0  0  0  0  0  0  0  0  0  0  0  0
   15.6277    0.2145   -9.8521 H   0  0  0  0  0  0  0  0  0  0  0  0
   16.3637   -1.3215   -9.4504 H   0  0  0  0  0  0  0  0  0  0  0  0
   17.2317    0.5499  -11.7251 H   0  0  0  0  0  0  0  0  0  0  0  0
   16.3246   -0.9313  -11.8828 H   0  0  0  0  0  0  0  0  0  0  0  0
   18.2340   -2.2447  -10.9767 H   0  0  0  0  0  0  0  0  0  0  0  0
   19.1858   -0.7476  -10.8007 H   0  0  0  0  0  0  0  0  0  0  0  0
   20.4091   -2.7340  -11.3385 H   0  0  0  0  0  0  0  0  0  0  0  0
   21.1847   -3.3342  -12.6865 H   0  0  0  0  0  0  0  0  0  0  0  0
   19.8334   -1.2288  -14.8925 H   0  0  0  0  0  0  0  0  0  0  0  0
   21.3099   -1.8455  -14.4335 H   0  0  0  0  0  0  0  0  0  0  0  0
   16.9812    2.3231   -9.2044 H   0  0  0  0  0  0  0  0  0  0  0  0
   18.0613    1.7942  -10.3039 H   0  0  0  0  0  0  0  0  0  0  0  0
  1  2  1  0  0  0  0
  1 53  1  0  0  0  0
  1 54  1  0  0  0  0
  1 55  1  0  0  0  0
  2  3  2  0  0  0  0
  2  4  1  0  0  0  0
  4  5  1  0  0  0  0
  4 56  1  0  0  0  0
  5  6  1  0  0  0  0
  5  9  2  0  0  0  0
  6  7  1  0  0  0  0
  7  8  2  0  0  0  0
  7 57  1  0  0  0  0
  8  9  1  0  0  0  0
  8 10  1  0  0  0  0
 10 11  1  0  0  0  0
 10 15  2  0  0  0  0
 11 12  2  0  0  0  0
 11 58  1  0  0  0  0
 12 13  1  0  0  0  0
 12 59  1  0  0  0  0
 13 14  2  0  0  0  0
 13 60  1  0  0  0  0
 14 15  1  0  0  0  0
 14 16  1  0  0  0  0
 15 61  1  0  0  0  0
 16 17  1  0  0  0  0
 16 62  1  0  0  0  0
 17 18  2  0  0  0  0
 19 20  1  0  0  0  0
 19 23  1  0  0  0  0
 19 17  1  0  0  0  0
 19 63  1  6  0  0  0
 20 21  1  0  0  0  0
 20 64  1  0  0  0  0
 20 65  1  0  0  0  0
 21 22  1  0  0  0  0
 21 39  1  0  0  0  0
 21 66  1  1  0  0  0
 22 23  1  0  0  0  0
 22 24  1  0  0  0  0
 22 67  1  6  0  0  0
 24 25  1  0  0  0  0
 24 68  1  0  0  0  0
 24 69  1  0  0  0  0
 25 26  1  0  0  0  0
 26 27  1  0  0  0  0
 26 70  1  0  0  0  0
 26 71  1  0  0  0  0
 27 28  1  0  0  0  0
 28 29  2  0  0  0  0
 28 30  1  0  0  0  0
 30 31  1  0  0  0  0
 30 38  1  0  0  0  0
 30 72  1  0  0  0  0
 31 32  1  0  0  0  0
 31 73  1  0  0  0  0
 31 74  1  0  0  0  0
 32 33  1  0  0  0  0
 32 75  1  0  0  0  0
 32 76  1  0  0  0  0
 33 34  1  0  0  0  0
 33 77  1  0  0  0  0
 33 78  1  0  0  0  0
 34 35  2  0  0  0  0
 35 36  1  0  0  0  0
 35 37  1  0  0  0  0
 36 79  1  0  0  0  0
 36 80  1  0  0  0  0
 37 81  1  0  0  0  0
 37 82  1  0  0  0  0
 38 83  1  0  0  0  0
 38 84  1  0  0  0  0
 39 40  1  0  0  0  0
 40 41  1  0  0  0  0
 40 85  1  0  0  0  0
 40 86  1  0  0  0  0
 41 42  1  0  0  0  0
 42 43  2  0  0  0  0
 42 44  1  0  0  0  0
 44 45  1  0  0  0  0
 44 52  1  0  0  0  0
 44 87  1  0  0  0  0
 45 46  1  0  0  0  0
 45 88  1  0  0  0  0
 45 89  1  0  0  0  0
 46 47  1  0  0  0  0
 46 90  1  0  0  0  0
 46 91  1  0  0  0  0
 47 48  1  0  0  0  0
 47 92  1  0  0  0  0
 47 93  1  0  0  0  0
 48 49  2  0  0  0  0
 49 50  1  0  0  0  0
 49 51  1  0  0  0  0
 50 94  1  0  0  0  0
 50 95  1  0  0  0  0
 51 96  1  0  0  0  0
 51 97  1  0  0  0  0
 52 98  1  0  0  0  0
 52 99  1  0  0  0  0
M  END
$$$$
Target_lig_1003
 OpenBabel04172516573D

 70 72  0  0  1  0  0  0  0  0999 V2000
    1.1476   -3.9083    7.6380 N   0  0  0  0  0  0  0  0  0  0  0  0
    2.2369   -4.0590    6.6841 C   0  0  0  0  0  0  0  0  0  0  0  0
    3.3902   -4.8611    7.2863 C   0  0  0  0  0  0  0  0  0  0  0  0
    4.5089   -4.9784    6.2538 C   0  0  0  0  0  0  0  0  0  0  0  0
    5.7137   -5.7677    6.7593 C   0  0  0  0  0  0  0  0  0  0  0  0
    6.7684   -5.9204    5.6560 C   0  0  3  0  0  0  0  0  0  0  0  0
    7.4068   -4.5715    5.2742 C   0  0  0  0  0  0  0  0  0  0  0  0
    8.3724   -4.0663    5.8200 O   0  0  0  0  0  0  0  0  0  0  0  0
    6.7648   -4.0761    4.1820 O   0  0  0  0  0  0  0  0  0  0  0  0
    7.2692   -2.8240    3.7506 C   0  0  0  0  0  0  0  0  0  0  0  0
    6.6613   -1.7787    4.4938 O   0  0  0  0  0  0  0  0  0  0  0  0
    7.1842   -0.5074    4.1166 C   0  0  0  0  0  0  0  0  0  0  0  0
    6.5579    0.5664    5.0061 C   0  0  1  0  0  0  0  0  0  0  0  0
    7.0345    0.3703    6.3630 O   0  0  0  0  0  0  0  0  0  0  0  0
    7.7480    1.5328    6.7737 C   0  0  3  0  0  0  0  0  0  0  0  0
    8.1409    2.2708    5.5022 C   0  0  0  0  0  0  0  0  0  0  0  0
    6.9881    1.9692    4.5795 C   0  0  2  0  0  0  0  0  0  0  0  0
    5.9442    2.9212    4.7861 O   0  0  0  0  0  0  0  0  0  0  0  0
    8.9852    1.3074    7.6500 C   0  0  0  0  0  0  0  0  0  0  0  0
    9.6408    2.2845    8.0143 O   0  0  0  0  0  0  0  0  0  0  0  0
    9.2709   -0.0214    7.9262 N   0  0  0  0  0  0  0  0  0  0  0  0
   10.3208   -0.4825    8.7591 C   0  0  0  0  0  0  0  0  0  0  0  0
   11.0227    0.3706    9.6185 C   0  0  0  0  0  0  0  0  0  0  0  0
   12.0619   -0.0985   10.4123 C   0  0  0  0  0  0  0  0  0  0  0  0
   12.4189   -1.4399   10.3726 C   0  0  0  0  0  0  0  0  0  0  0  0
   11.7223   -2.3318    9.5503 C   0  0  0  0  0  0  0  0  0  0  0  0
   10.6636   -1.8415    8.7496 C   0  0  0  0  0  0  0  0  0  0  0  0
   12.0342   -3.7577    9.5752 C   0  0  0  0  0  0  0  0  0  0  0  0
   13.2418   -4.3106    9.9688 C   0  0  0  0  0  0  0  0  0  0  0  0
   13.1281   -6.0289    9.9771 S   0  0  0  0  0  0  0  0  0  0  0  0
   11.5254   -5.8929    9.4218 C   0  0  0  0  0  0  0  0  0  0  0  0
   11.0757   -4.6834    9.2302 N   0  0  0  0  0  0  0  0  0  0  0  0
   10.8725   -7.0760    9.2227 N   0  0  0  0  0  0  0  0  0  0  0  0
    9.5854   -7.0798    8.7499 C   0  0  0  0  0  0  0  0  0  0  0  0
    8.8940   -6.0936    8.5079 O   0  0  0  0  0  0  0  0  0  0  0  0
    9.0498   -8.4564    8.4573 C   0  0  0  0  0  0  0  0  0  0  0  0
    7.8324   -6.8253    6.1119 N   0  0  0  0  0  0  0  0  0  0  0  0
    0.4228   -3.3248    7.2221 H   0  0  0  0  0  0  0  0  0  0  0  0
    1.4838   -3.4025    8.4566 H   0  0  0  0  0  0  0  0  0  0  0  0
    2.5899   -3.0674    6.3785 H   0  0  0  0  0  0  0  0  0  0  0  0
    1.8601   -4.5649    5.7882 H   0  0  0  0  0  0  0  0  0  0  0  0
    3.0449   -5.8595    7.5822 H   0  0  0  0  0  0  0  0  0  0  0  0
    3.7682   -4.3652    8.1892 H   0  0  0  0  0  0  0  0  0  0  0  0
    4.8261   -3.9685    5.9712 H   0  0  0  0  0  0  0  0  0  0  0  0
    4.1179   -5.4627    5.3506 H   0  0  0  0  0  0  0  0  0  0  0  0
    5.3790   -6.7608    7.0891 H   0  0  0  0  0  0  0  0  0  0  0  0
    6.1377   -5.2665    7.6404 H   0  0  0  0  0  0  0  0  0  0  0  0
    6.3290   -6.3756    4.7604 H   0  0  0  0  0  0  0  0  0  0  0  0
    6.9965   -2.7147    2.6958 H   0  0  0  0  0  0  0  0  0  0  0  0
    8.3653   -2.7814    3.8174 H   0  0  0  0  0  0  0  0  0  0  0  0
    6.9331   -0.3248    3.0659 H   0  0  0  0  0  0  0  0  0  0  0  0
    8.2734   -0.5153    4.2399 H   0  0  0  0  0  0  0  0  0  0  0  0
    5.4678    0.4560    5.0266 H   0  0  0  0  0  0  0  0  0  0  0  0
    7.0518    2.1379    7.3685 H   0  0  0  0  0  0  0  0  0  0  0  0
    9.0681    1.8509    5.0924 H   0  0  0  0  0  0  0  0  0  0  0  0
    8.2955    3.3392    5.6821 H   0  0  0  0  0  0  0  0  0  0  0  0
    7.2680    2.0344    3.5240 H   0  0  0  0  0  0  0  0  0  0  0  0
    5.6217    2.8484    5.7008 H   0  0  0  0  0  0  0  0  0  0  0  0
    8.7106   -0.7170    7.4414 H   0  0  0  0  0  0  0  0  0  0  0  0
   10.7589    1.4212    9.7175 H   0  0  0  0  0  0  0  0  0  0  0  0
   12.5834    0.5869   11.0793 H   0  0  0  0  0  0  0  0  0  0  0  0
   13.2209   -1.7791   11.0245 H   0  0  0  0  0  0  0  0  0  0  0  0
   10.1139   -2.5420    8.1161 H   0  0  0  0  0  0  0  0  0  0  0  0
   14.1568   -3.8213   10.2676 H   0  0  0  0  0  0  0  0  0  0  0  0
   11.3671   -7.9297    9.4254 H   0  0  0  0  0  0  0  0  0  0  0  0
    9.5567   -9.2252    9.0399 H   0  0  0  0  0  0  0  0  0  0  0  0
    9.1819   -8.6759    7.3937 H   0  0  0  0  0  0  0  0  0  0  0  0
    7.9828   -8.4715    8.7013 H   0  0  0  0  0  0  0  0  0  0  0  0
    8.2174   -6.3554    6.9539 H   0  0  0  0  0  0  0  0  0  0  0  0
    8.6120   -6.7781    5.4570 H   0  0  0  0  0  0  0  0  0  0  0  0
  1  2  1  0  0  0  0
  1 38  1  0  0  0  0
  1 39  1  0  0  0  0
  2  3  1  0  0  0  0
  2 40  1  0  0  0  0
  2 41  1  0  0  0  0
  3  4  1  0  0  0  0
  3 42  1  0  0  0  0
  3 43  1  0  0  0  0
  4  5  1  0  0  0  0
  4 44  1  0  0  0  0
  4 45  1  0  0  0  0
  5  6  1  0  0  0  0
  5 46  1  0  0  0  0
  5 47  1  0  0  0  0
  6  7  1  0  0  0  0
  6 37  1  0  0  0  0
  6 48  1  0  0  0  0
  7  8  2  0  0  0  0
  7  9  1  0  0  0  0
  9 10  1  0  0  0  0
 10 11  1  0  0  0  0
 10 49  1  0  0  0  0
 10 50  1  0  0  0  0
 11 12  1  0  0  0  0
 12 13  1  0  0  0  0
 12 51  1  0  0  0  0
 12 52  1  0  0  0  0
 13 14  1  0  0  0  0
 13 17  1  0  0  0  0
 13 53  1  6  0  0  0
 14 15  1  0  0  0  0
 15 16  1  0  0  0  0
 15 19  1  0  0  0  0
 15 54  1  0  0  0  0
 16 17  1  0  0  0  0
 16 55  1  0  0  0  0
 16 56  1  0  0  0  0
 17 18  1  0  0  0  0
 17 57  1  6  0  0  0
 18 58  1  0  0  0  0
 19 20  2  0  0  0  0
 19 21  1  0  0  0  0
 21 22  1  0  0  0  0
 21 59  1  0  0  0  0
 22 23  1  0  0  0  0
 22 27  2  0  0  0  0
 23 24  2  0  0  0  0
 23 60  1  0  0  0  0
 24 25  1  0  0  0  0
 24 61  1  0  0  0  0
 25 26  2  0  0  0  0
 25 62  1  0  0  0  0
 26 27  1  0  0  0  0
 26 28  1  0  0  0  0
 27 63  1  0  0  0  0
 28 29  2  0  0  0  0
 28 32  1  0  0  0  0
 29 30  1  0  0  0  0
 29 64  1  0  0  0  0
 30 31  1  0  0  0  0
 31 32  2  0  0  0  0
 31 33  1  0  0  0  0
 33 34  1  0  0  0  0
 33 65  1  0  0  0  0
 34 35  2  0  0  0  0
 34 36  1  0  0  0  0
 36 66  1  0  0  0  0
 36 67  1  0  0  0  0
 36 68  1  0  0  0  0
 37 69  1  0  0  0  0
 37 70  1  0  0  0  0
M  END
$$$$
Target_lig_1004
 OpenBabel04172516573D

 95 97  0  0  1  0  0  0  0  0999 V2000
   -1.5563   -3.2286   -3.2030 N   0  0  0  0  0  0  0  0  0  0  0  0
   -0.7303   -2.0382   -3.3373 C   0  0  0  0  0  0  0  0  0  0  0  0
   -0.3392   -1.8132   -4.7963 C   0  0  0  0  0  0  0  0  0  0  0  0
    0.5502   -0.5781   -4.8951 C   0  0  0  0  0  0  0  0  0  0  0  0
    1.0153   -0.3097   -6.3260 C   0  0  0  0  0  0  0  0  0  0  0  0
    1.9344    0.9187   -6.3915 C   0  0  3  0  0  0  0  0  0  0  0  0
    3.1659    0.7208   -5.4881 C   0  0  0  0  0  0  0  0  0  0  0  0
    3.3028    1.2765   -4.4049 O   0  0  0  0  0  0  0  0  0  0  0  0
    4.0014   -0.2298   -5.9859 O   0  0  0  0  0  0  0  0  0  0  0  0
    4.9983   -0.6798   -5.0640 C   0  0  0  0  0  0  0  0  0  0  0  0
    6.1866    0.1100   -5.1436 O   0  0  0  0  0  0  0  0  0  0  0  0
    7.2159   -0.3408   -4.2626 C   0  0  1  0  0  0  0  0  0  0  0  0
    7.6845   -1.7390   -4.5981 C   0  0  0  0  0  0  0  0  0  0  0  0
    9.1004   -1.7813   -4.0578 C   0  0  3  0  0  0  0  0  0  0  0  0
    9.5934   -0.4432   -4.0528 O   0  0  0  0  0  0  0  0  0  0  0  0
    8.5194    0.4529   -4.4294 C   0  0  2  0  0  0  0  0  0  0  0  0
    8.6023    1.7135   -3.5599 C   0  0  0  0  0  0  0  0  0  0  0  0
    9.8712    2.3531   -3.7767 O   0  0  0  0  0  0  0  0  0  0  0  0
   10.0455    3.4900   -2.9336 C   0  0  0  0  0  0  0  0  0  0  0  0
   11.3301    4.0870   -3.1617 O   0  0  0  0  0  0  0  0  0  0  0  0
   11.3041    5.3737   -3.5922 C   0  0  0  0  0  0  0  0  0  0  0  0
   10.3010    6.0171   -3.8672 O   0  0  0  0  0  0  0  0  0  0  0  0
   12.7305    5.9478   -3.7095 C   0  0  3  0  0  0  0  0  0  0  0  0
   13.2799    5.6524   -5.1108 C   0  0  0  0  0  0  0  0  0  0  0  0
   14.7024    6.1617   -5.3760 C   0  0  0  0  0  0  0  0  0  0  0  0
   15.7673    5.7033   -4.3712 C   0  0  0  0  0  0  0  0  0  0  0  0
   15.8866    4.1951   -4.1661 C   0  0  0  0  0  0  0  0  0  0  0  0
   16.1967    3.5411   -5.4157 N   0  0  0  0  0  0  0  0  0  0  0  0
   12.6901    7.4014   -3.4293 N   0  0  0  0  0  0  0  0  0  0  0  0
    9.9320   -2.7595   -4.8925 C   0  0  0  0  0  0  0  0  0  0  0  0
    9.5314   -3.9114   -5.0562 O   0  0  0  0  0  0  0  0  0  0  0  0
   11.1069   -2.2173   -5.3864 N   0  0  0  0  0  0  0  0  0  0  0  0
   12.0312   -2.8538   -6.2405 C   0  0  0  0  0  0  0  0  0  0  0  0
   11.7603   -4.0743   -6.8679 C   0  0  0  0  0  0  0  0  0  0  0  0
   12.7118   -4.6885   -7.6803 C   0  0  0  0  0  0  0  0  0  0  0  0
   13.9441   -4.0837   -7.8893 C   0  0  0  0  0  0  0  0  0  0  0  0
   14.2320   -2.8414   -7.3053 C   0  0  0  0  0  0  0  0  0  0  0  0
   13.2603   -2.2285   -6.4863 C   0  0  0  0  0  0  0  0  0  0  0  0
   15.4812   -2.1545   -7.5995 C   0  0  0  0  0  0  0  0  0  0  0  0
   16.6594   -2.7770   -7.9745 C   0  0  0  0  0  0  0  0  0  0  0  0
   17.8368   -1.5966   -8.3934 S   0  0  0  0  0  0  0  0  0  0  0  0
   16.7084   -0.3776   -8.0096 C   0  0  0  0  0  0  0  0  0  0  0  0
   15.5470   -0.7755   -7.5665 N   0  0  0  0  0  0  0  0  0  0  0  0
   17.1487    0.8944   -8.2325 N   0  0  0  0  0  0  0  0  0  0  0  0
   16.3418    1.9820   -7.9846 C   0  0  0  0  0  0  0  0  0  0  0  0
   15.2116    1.9705   -7.5047 O   0  0  0  0  0  0  0  0  0  0  0  0
   17.0314    3.2847   -8.3145 C   0  0  0  0  0  0  0  0  0  0  0  0
    2.3082    1.1726   -7.7969 N   0  0  0  0  0  0  0  0  0  0  0  0
   -1.7237   -3.4070   -2.2135 H   0  0  0  0  0  0  0  0  0  0  0  0
   -1.0485   -4.0378   -3.5573 H   0  0  0  0  0  0  0  0  0  0  0  0
    0.1706   -2.1509   -2.7229 H   0  0  0  0  0  0  0  0  0  0  0  0
   -1.2806   -1.1694   -2.9598 H   0  0  0  0  0  0  0  0  0  0  0  0
   -1.2335   -1.6823   -5.4176 H   0  0  0  0  0  0  0  0  0  0  0  0
    0.2014   -2.6872   -5.1816 H   0  0  0  0  0  0  0  0  0  0  0  0
    1.4180   -0.7296   -4.2430 H   0  0  0  0  0  0  0  0  0  0  0  0
    0.0109    0.2987   -4.5169 H   0  0  0  0  0  0  0  0  0  0  0  0
    0.1372   -0.1496   -6.9655 H   0  0  0  0  0  0  0  0  0  0  0  0
    1.5326   -1.1976   -6.7128 H   0  0  0  0  0  0  0  0  0  0  0  0
    1.3972    1.8006   -6.0231 H   0  0  0  0  0  0  0  0  0  0  0  0
    5.2190   -1.7114   -5.3582 H   0  0  0  0  0  0  0  0  0  0  0  0
    4.6158   -0.7132   -4.0349 H   0  0  0  0  0  0  0  0  0  0  0  0
    6.8652   -0.2938   -3.2231 H   0  0  0  0  0  0  0  0  0  0  0  0
    7.6602   -1.8976   -5.6847 H   0  0  0  0  0  0  0  0  0  0  0  0
    7.0552   -2.5183   -4.1540 H   0  0  0  0  0  0  0  0  0  0  0  0
    9.1116   -2.1358   -3.0210 H   0  0  0  0  0  0  0  0  0  0  0  0
    8.6832    0.7266   -5.4788 H   0  0  0  0  0  0  0  0  0  0  0  0
    8.5253    1.4422   -2.4999 H   0  0  0  0  0  0  0  0  0  0  0  0
    7.7978    2.4106   -3.8175 H   0  0  0  0  0  0  0  0  0  0  0  0
   10.0332    3.1637   -1.8870 H   0  0  0  0  0  0  0  0  0  0  0  0
    9.2111    4.1835   -3.0829 H   0  0  0  0  0  0  0  0  0  0  0  0
   13.3449    5.4829   -2.9335 H   0  0  0  0  0  0  0  0  0  0  0  0
   12.6134    6.0927   -5.8656 H   0  0  0  0  0  0  0  0  0  0  0  0
   13.2449    4.5708   -5.2925 H   0  0  0  0  0  0  0  0  0  0  0  0
   14.7027    7.2586   -5.3972 H   0  0  0  0  0  0  0  0  0  0  0  0
   14.9959    5.8580   -6.3886 H   0  0  0  0  0  0  0  0  0  0  0  0
   15.5829    6.1701   -3.3975 H   0  0  0  0  0  0  0  0  0  0  0  0
   16.7372    6.0921   -4.7097 H   0  0  0  0  0  0  0  0  0  0  0  0
   14.9774    3.7662   -3.7344 H   0  0  0  0  0  0  0  0  0  0  0  0
   16.7041    3.9952   -3.4670 H   0  0  0  0  0  0  0  0  0  0  0  0
   15.3254    3.2773   -5.9030 H   0  0  0  0  0  0  0  0  0  0  0  0
   16.6422    2.6421   -5.2406 H   0  0  0  0  0  0  0  0  0  0  0  0
   11.9789    7.8186   -4.0364 H   0  0  0  0  0  0  0  0  0  0  0  0
   13.5736    7.8343   -3.6857 H   0  0  0  0  0  0  0  0  0  0  0  0
   11.3296   -1.2813   -5.0601 H   0  0  0  0  0  0  0  0  0  0  0  0
   10.8006   -4.5662   -6.7652 H   0  0  0  0  0  0  0  0  0  0  0  0
   12.4765   -5.6316   -8.1590 H   0  0  0  0  0  0  0  0  0  0  0  0
   14.6553   -4.5735   -8.5463 H   0  0  0  0  0  0  0  0  0  0  0  0
   13.4789   -1.2557   -6.0437 H   0  0  0  0  0  0  0  0  0  0  0  0
   16.8802   -3.8307   -8.0579 H   0  0  0  0  0  0  0  0  0  0  0  0
   18.0733    1.0039   -8.6165 H   0  0  0  0  0  0  0  0  0  0  0  0
   17.6623    3.1851   -9.1991 H   0  0  0  0  0  0  0  0  0  0  0  0
   17.6597    3.5993   -7.4765 H   0  0  0  0  0  0  0  0  0  0  0  0
   16.2720    4.0474   -8.5072 H   0  0  0  0  0  0  0  0  0  0  0  0
    2.8594    0.3872   -8.1443 H   0  0  0  0  0  0  0  0  0  0  0  0
    2.9160    1.9903   -7.8412 H   0  0  0  0  0  0  0  0  0  0  0  0
  1  2  1  0  0  0  0
  1 49  1  0  0  0  0
  1 50  1  0  0  0  0
  2  3  1  0  0  0  0
  2 51  1  0  0  0  0
  2 52  1  0  0  0  0
  3  4  1  0  0  0  0
  3 53  1  0  0  0  0
  3 54  1  0  0  0  0
  4  5  1  0  0  0  0
  4 55  1  0  0  0  0
  4 56  1  0  0  0  0
  5  6  1  0  0  0  0
  5 57  1  0  0  0  0
  5 58  1  0  0  0  0
  6  7  1  0  0  0  0
  6 48  1  0  0  0  0
  6 59  1  0  0  0  0
  7  8  2  0  0  0  0
  7  9  1  0  0  0  0
  9 10  1  0  0  0  0
 10 11  1  0  0  0  0
 10 60  1  0  0  0  0
 10 61  1  0  0  0  0
 12 13  1  0  0  0  0
 12 16  1  0  0  0  0
 12 11  1  0  0  0  0
 12 62  1  1  0  0  0
 13 14  1  0  0  0  0
 13 63  1  0  0  0  0
 13 64  1  0  0  0  0
 14 15  1  0  0  0  0
 14 30  1  0  0  0  0
 14 65  1  0  0  0  0
 15 16  1  0  0  0  0
 16 17  1  0  0  0  0
 16 66  1  6  0  0  0
 17 18  1  0  0  0  0
 17 67  1  0  0  0  0
 17 68  1  0  0  0  0
 18 19  1  0  0  0  0
 19 20  1  0  0  0  0
 19 69  1  0  0  0  0
 19 70  1  0  0  0  0
 20 21  1  0  0  0  0
 21 22  2  0  0  0  0
 21 23  1  0  0  0  0
 23 24  1  0  0  0  0
 23 29  1  0  0  0  0
 23 71  1  0  0  0  0
 24 25  1  0  0  0  0
 24 72  1  0  0  0  0
 24 73  1  0  0  0  0
 25 26  1  0  0  0  0
 25 74  1  0  0  0  0
 25 75  1  0  0  0  0
 26 27  1  0  0  0  0
 26 76  1  0  0  0  0
 26 77  1  0  0  0  0
 27 28  1  0  0  0  0
 27 78  1  0  0  0  0
 27 79  1  0  0  0  0
 28 80  1  0  0  0  0
 28 81  1  0  0  0  0
 29 82  1  0  0  0  0
 29 83  1  0  0  0  0
 30 31  2  0  0  0  0
 30 32  1  0  0  0  0
 32 33  1  0  0  0  0
 32 84  1  0  0  0  0
 33 34  1  0  0  0  0
 33 38  2  0  0  0  0
 34 35  2  0  0  0  0
 34 85  1  0  0  0  0
 35 36  1  0  0  0  0
 35 86  1  0  0  0  0
 36 37  2  0  0  0  0
 36 87  1  0  0  0  0
 37 38  1  0  0  0  0
 37 39  1  0  0  0  0
 38 88  1  0  0  0  0
 39 40  2  0  0  0  0
 39 43  1  0  0  0  0
 40 41  1  0  0  0  0
 40 89  1  0  0  0  0
 41 42  1  0  0  0  0
 42 43  2  0  0  0  0
 42 44  1  0  0  0  0
 44 45  1  0  0  0  0
 44 90  1  0  0  0  0
 45 46  2  0  0  0  0
 45 47  1  0  0  0  0
 47 91  1  0  0  0  0
 47 92  1  0  0  0  0
 47 93  1  0  0  0  0
 48 94  1  0  0  0  0
 48 95  1  0  0  0  0
M  END
$$$$
Target_lig_1019
 OpenBabel04172516573D

 42 43  0  0  0  0  0  0  0  0999 V2000
    2.3819   -0.2843   -1.1593 C   0  0  0  0  0  0  0  0  0  0  0  0
    2.4293   -0.0089    0.2805 N   0  0  0  0  0  0  0  0  0  0  0  0
    2.8030   -1.1616    1.1047 C   0  0  0  0  0  0  0  0  0  0  0  0
    3.1337    1.1668    0.6160 C   0  0  0  0  0  0  0  0  0  0  0  0
    2.8845    1.8999    1.8064 C   0  0  0  0  0  0  0  0  0  0  0  0
    3.5556    3.0419    2.1611 N   0  0  0  0  0  0  0  0  0  0  0  0
    4.5215    3.4067    1.2695 C   0  0  0  0  0  0  0  0  0  0  0  0
    4.7847    2.7233    0.0769 C   0  0  0  0  0  0  0  0  0  0  0  0
    4.0817    1.6212   -0.2474 N   0  0  0  0  0  0  0  0  0  0  0  0
    5.6680    3.1704   -0.9014 N   0  0  0  0  0  0  0  0  0  0  0  0
    5.3673    4.5779    1.6304 C   0  0  0  0  0  0  0  0  0  0  0  0
    6.5095    4.7303    1.2168 O   0  0  0  0  0  0  0  0  0  0  0  0
    4.8102    5.5464    2.5165 N   0  3  0  0  0  0  0  0  0  0  0  0
    5.4347    6.6610    2.9242 C   0  0  0  0  0  0  0  0  0  0  0  0
    6.6871    6.9375    2.5508 N   0  0  0  0  0  0  0  0  0  0  0  0
    4.8089    7.5356    3.7185 N   0  0  0  0  0  0  0  0  0  0  0  0
    1.8620    1.5017    2.7333 C   0  0  0  0  0  0  0  0  0  0  0  0
    0.9877    1.0566    3.4275 C   0  0  0  0  0  0  0  0  0  0  0  0
   -0.0751    0.4480    4.1779 C   0  0  0  0  0  0  0  0  0  0  0  0
   -0.1179   -0.9404    4.3470 C   0  0  0  0  0  0  0  0  0  0  0  0
   -1.1778   -1.5291    5.0457 C   0  0  0  0  0  0  0  0  0  0  0  0
   -2.1920   -0.7355    5.5748 C   0  0  0  0  0  0  0  0  0  0  0  0
   -2.1492    0.6486    5.4113 C   0  0  0  0  0  0  0  0  0  0  0  0
   -1.0947    1.2397    4.7101 C   0  0  0  0  0  0  0  0  0  0  0  0
    2.0039   -1.2958   -1.3492 H   0  0  0  0  0  0  0  0  0  0  0  0
    3.3577   -0.2129   -1.6525 H   0  0  0  0  0  0  0  0  0  0  0  0
    1.6820    0.4068   -1.6418 H   0  0  0  0  0  0  0  0  0  0  0  0
    2.3711   -2.0839    0.6977 H   0  0  0  0  0  0  0  0  0  0  0  0
    2.4090   -1.0732    2.1201 H   0  0  0  0  0  0  0  0  0  0  0  0
    3.8891   -1.2955    1.1574 H   0  0  0  0  0  0  0  0  0  0  0  0
    6.5807    3.4538   -0.5493 H   0  0  0  0  0  0  0  0  0  0  0  0
    5.7360    2.4695   -1.6380 H   0  0  0  0  0  0  0  0  0  0  0  0
    3.8723    5.3507    2.8453 H   0  0  0  0  0  0  0  0  0  0  0  0
    7.1694    6.2786    1.9347 H   0  0  0  0  0  0  0  0  0  0  0  0
    7.1933    7.7612    2.8420 H   0  0  0  0  0  0  0  0  0  0  0  0
    3.8563    7.3979    4.0278 H   0  0  0  0  0  0  0  0  0  0  0  0
    5.2737    8.3826    4.0242 H   0  0  0  0  0  0  0  0  0  0  0  0
    0.6585   -1.5780    3.9327 H   0  0  0  0  0  0  0  0  0  0  0  0
   -1.2140   -2.6114    5.1699 H   0  0  0  0  0  0  0  0  0  0  0  0
   -3.0182   -1.1960    6.1120 H   0  0  0  0  0  0  0  0  0  0  0  0
   -2.9493    1.2669    5.8157 H   0  0  0  0  0  0  0  0  0  0  0  0
   -1.0825    2.3181    4.5755 H   0  0  0  0  0  0  0  0  0  0  0  0
  1  2  1  0  0  0  0
  1 25  1  0  0  0  0
  1 26  1  0  0  0  0
  1 27  1  0  0  0  0
  2  3  1  0  0  0  0
  2  4  1  0  0  0  0
  3 28  1  0  0  0  0
  3 29  1  0  0  0  0
  3 30  1  0  0  0  0
  4  5  2  0  0  0  0
  4  9  1  0  0  0  0
  5  6  1  0  0  0  0
  5 17  1  0  0  0  0
  6  7  2  0  0  0  0
  7  8  1  0  0  0  0
  7 11  1  0  0  0  0
  8  9  2  0  0  0  0
  8 10  1  0  0  0  0
 10 31  1  0  0  0  0
 10 32  1  0  0  0  0
 11 12  2  0  0  0  0
 11 13  1  0  0  0  0
 13 14  2  0  0  0  0
 13 33  1  0  0  0  0
 14 15  1  0  0  0  0
 14 16  1  0  0  0  0
 15 34  1  0  0  0  0
 15 35  1  0  0  0  0
 16 36  1  0  0  0  0
 16 37  1  0  0  0  0
 17 18  3  0  0  0  0
 18 19  1  0  0  0  0
 19 20  2  0  0  0  0
 19 24  1  0  0  0  0
 20 21  1  0  0  0  0
 20 38  1  0  0  0  0
 21 22  2  0  0  0  0
 21 39  1  0  0  0  0
 22 23  1  0  0  0  0
 22 40  1  0  0  0  0
 23 24  2  0  0  0  0
 23 41  1  0  0  0  0
 24 42  1  0  0  0  0
M  CHG  1  13   1
M  END
$$$$
Target_lig_1020
 OpenBabel04172516573D

 30 30  0  0  0  0  0  0  0  0999 V2000
    2.4925    1.2843   -0.3579 O   0  0  0  0  0  0  0  0  0  0  0  0
    2.3142    0.1618    0.0891 C   0  0  0  0  0  0  0  0  0  0  0  0
    2.9158   -0.3730    1.3554 C   0  0  0  0  0  0  0  0  0  0  0  0
    2.4737   -1.6075    1.7240 N   0  0  0  0  0  0  0  0  0  0  0  0
    3.1224   -2.1387    2.8078 C   0  0  0  0  0  0  0  0  0  0  0  0
    2.6076   -3.7601    3.0862 Cl  0  0  0  0  0  0  0  0  0  0  0  0
    4.1713   -1.5014    3.5145 C   0  0  0  0  0  0  0  0  0  0  0  0
    4.5190   -0.2436    3.1178 N   0  0  0  0  0  0  0  0  0  0  0  0
    3.9060    0.3233    2.0525 C   0  0  0  0  0  0  0  0  0  0  0  0
    4.4349    1.5479    1.6718 N   0  0  0  0  0  0  0  0  0  0  0  0
    4.9792   -2.1242    4.4649 N   0  0  0  0  0  0  0  0  0  0  0  0
    6.2961   -1.5233    4.7006 C   0  0  0  0  0  0  0  0  0  0  0  0
    4.4028   -2.7436    5.6583 C   0  0  0  0  0  0  0  0  0  0  0  0
    1.4683   -0.7530   -0.6212 N   0  0  0  0  0  0  0  0  0  0  0  0
    0.8945   -0.5464   -1.8105 C   0  0  0  0  0  0  0  0  0  0  0  0
    0.1115   -1.4846   -2.3572 N   0  3  0  0  0  0  0  0  0  0  0  0
    1.0806    0.5838   -2.5021 N   0  0  0  0  0  0  0  0  0  0  0  0
    5.1152    1.8539    2.3663 H   0  0  0  0  0  0  0  0  0  0  0  0
    3.7525    2.2697    1.4579 H   0  0  0  0  0  0  0  0  0  0  0  0
    6.7130   -1.0331    3.8141 H   0  0  0  0  0  0  0  0  0  0  0  0
    7.0030   -2.3160    4.9717 H   0  0  0  0  0  0  0  0  0  0  0  0
    6.2667   -0.8001    5.5240 H   0  0  0  0  0  0  0  0  0  0  0  0
    3.3630   -3.0566    5.5552 H   0  0  0  0  0  0  0  0  0  0  0  0
    4.4504   -2.0611    6.5159 H   0  0  0  0  0  0  0  0  0  0  0  0
    4.9943   -3.6311    5.9156 H   0  0  0  0  0  0  0  0  0  0  0  0
    1.3342   -1.6441   -0.1584 H   0  0  0  0  0  0  0  0  0  0  0  0
   -0.1112   -2.3465   -1.8729 H   0  0  0  0  0  0  0  0  0  0  0  0
   -0.2974   -1.3571   -3.2743 H   0  0  0  0  0  0  0  0  0  0  0  0
    1.6716    1.3135   -2.0928 H   0  0  0  0  0  0  0  0  0  0  0  0
    0.6582    0.7663   -3.4000 H   0  0  0  0  0  0  0  0  0  0  0  0
  1  2  2  0  0  0  0
  2  3  1  0  0  0  0
  2 14  1  0  0  0  0
  3  4  1  0  0  0  0
  3  9  2  0  0  0  0
  4  5  2  0  0  0  0
  5  6  1  0  0  0  0
  5  7  1  0  0  0  0
  7  8  2  0  0  0  0
  7 11  1  0  0  0  0
  8  9  1  0  0  0  0
  9 10  1  0  0  0  0
 10 18  1  0  0  0  0
 10 19  1  0  0  0  0
 11 12  1  0  0  0  0
 11 13  1  0  0  0  0
 12 20  1  0  0  0  0
 12 21  1  0  0  0  0
 12 22  1  0  0  0  0
 13 23  1  0  0  0  0
 13 24  1  0  0  0  0
 13 25  1  0  0  0  0
 14 15  1  0  0  0  0
 14 26  1  0  0  0  0
 15 16  2  0  0  0  0
 15 17  1  0  0  0  0
 16 27  1  0  0  0  0
 16 28  1  0  0  0  0
 17 29  1  0  0  0  0
 17 30  1  0  0  0  0
M  CHG  1  16   1
M  END
$$$$
Target_lig_1021
 OpenBabel04172516573D

 50 52  0  0  0  0  0  0  0  0999 V2000
    1.2612    0.2358    0.6542 C   0  0  0  0  0  0  0  0  0  0  0  0
    2.4471   -0.0443   -0.1534 N   0  0  0  0  0  0  0  0  0  0  0  0
    3.1470   -1.2450   -0.0617 C   0  0  0  0  0  0  0  0  0  0  0  0
    4.5043   -1.1305    0.0081 N   0  0  0  0  0  0  0  0  0  0  0  0
    5.2791   -2.2311    0.0228 C   0  0  0  0  0  0  0  0  0  0  0  0
    6.6354   -1.9836    0.1883 N   0  0  0  0  0  0  0  0  0  0  0  0
    4.7015   -3.4946   -0.0292 C   0  0  0  0  0  0  0  0  0  0  0  0
    3.3584   -3.6997   -0.0860 N   0  0  0  0  0  0  0  0  0  0  0  0
    2.5776   -2.5543   -0.1146 C   0  0  0  0  0  0  0  0  0  0  0  0
    1.1413   -2.8642   -0.3209 C   0  0  0  0  0  0  0  0  0  0  0  0
    0.5548   -4.0051    0.2530 C   0  0  0  0  0  0  0  0  0  0  0  0
   -0.7930   -4.3313    0.0319 C   0  0  0  0  0  0  0  0  0  0  0  0
   -1.6325   -3.5054   -0.7315 C   0  0  0  0  0  0  0  0  0  0  0  0
   -1.0483   -2.3551   -1.2804 C   0  0  0  0  0  0  0  0  0  0  0  0
    0.3132   -2.0758   -1.1274 C   0  0  0  0  0  0  0  0  0  0  0  0
   -3.0599   -3.8278   -0.9736 C   0  0  0  0  0  0  0  0  0  0  0  0
   -3.8211   -4.5779   -0.0593 C   0  0  0  0  0  0  0  0  0  0  0  0
   -5.1692   -4.8687   -0.2969 C   0  0  0  0  0  0  0  0  0  0  0  0
   -5.7935   -4.4024   -1.4491 C   0  0  0  0  0  0  0  0  0  0  0  0
   -5.0680   -3.6598   -2.3716 C   0  0  0  0  0  0  0  0  0  0  0  0
   -3.7174   -3.3883   -2.1403 C   0  0  0  0  0  0  0  0  0  0  0  0
    5.5652   -4.7099   -0.1174 C   0  0  0  0  0  0  0  0  0  0  0  0
    6.7858   -4.6725   -0.2106 O   0  0  0  0  0  0  0  0  0  0  0  0
    4.9039   -5.9784   -0.1472 N   0  0  0  0  0  0  0  0  0  0  0  0
    5.5310   -7.1644   -0.2267 C   0  0  0  0  0  0  0  0  0  0  0  0
    6.8641   -7.2465   -0.2549 N   0  3  0  0  0  0  0  0  0  0  0  0
    4.8330   -8.3030   -0.2788 N   0  0  0  0  0  0  0  0  0  0  0  0
    3.2338    1.1338   -0.5246 C   0  0  0  0  0  0  0  0  0  0  0  0
    0.9678   -0.5836    1.3154 H   0  0  0  0  0  0  0  0  0  0  0  0
    0.4241    0.4694   -0.0154 H   0  0  0  0  0  0  0  0  0  0  0  0
    1.4066    1.1243    1.2801 H   0  0  0  0  0  0  0  0  0  0  0  0
    6.8092   -0.9835    0.1124 H   0  0  0  0  0  0  0  0  0  0  0  0
    7.2494   -2.5411   -0.3998 H   0  0  0  0  0  0  0  0  0  0  0  0
    1.1466   -4.6680    0.8804 H   0  0  0  0  0  0  0  0  0  0  0  0
   -1.1720   -5.2548    0.4642 H   0  0  0  0  0  0  0  0  0  0  0  0
   -1.6449   -1.6425   -1.8466 H   0  0  0  0  0  0  0  0  0  0  0  0
    0.7070   -1.2027   -1.6447 H   0  0  0  0  0  0  0  0  0  0  0  0
   -3.3830   -4.9388    0.8678 H   0  0  0  0  0  0  0  0  0  0  0  0
   -5.7333   -5.4526    0.4258 H   0  0  0  0  0  0  0  0  0  0  0  0
   -6.8439   -4.6156   -1.6275 H   0  0  0  0  0  0  0  0  0  0  0  0
   -5.5470   -3.2896   -3.2745 H   0  0  0  0  0  0  0  0  0  0  0  0
   -3.1837   -2.8251   -2.9025 H   0  0  0  0  0  0  0  0  0  0  0  0
    3.8926   -5.9396   -0.1228 H   0  0  0  0  0  0  0  0  0  0  0  0
    7.4065   -6.3783   -0.2247 H   0  0  0  0  0  0  0  0  0  0  0  0
    7.3746   -8.1133   -0.3099 H   0  0  0  0  0  0  0  0  0  0  0  0
    3.8226   -8.3209   -0.2708 H   0  0  0  0  0  0  0  0  0  0  0  0
    5.3078   -9.1964   -0.3425 H   0  0  0  0  0  0  0  0  0  0  0  0
    2.5978    2.0253   -0.5777 H   0  0  0  0  0  0  0  0  0  0  0  0
    3.6689    0.9985   -1.5212 H   0  0  0  0  0  0  0  0  0  0  0  0
    4.0320    1.3459    0.1963 H   0  0  0  0  0  0  0  0  0  0  0  0
  1  2  1  0  0  0  0
  1 29  1  0  0  0  0
  1 30  1  0  0  0  0
  1 31  1  0  0  0  0
  2  3  1  0  0  0  0
  2 28  1  0  0  0  0
  3  4  1  0  0  0  0
  3  9  2  0  0  0  0
  4  5  2  0  0  0  0
  5  6  1  0  0  0  0
  5  7  1  0  0  0  0
  6 32  1  0  0  0  0
  6 33  1  0  0  0  0
  7  8  2  0  0  0  0
  7 22  1  0  0  0  0
  8  9  1  0  0  0  0
  9 10  1  0  0  0  0
 10 11  1  0  0  0  0
 10 15  2  0  0  0  0
 11 12  2  0  0  0  0
 11 34  1  0  0  0  0
 12 13  1  0  0  0  0
 12 35  1  0  0  0  0
 13 14  2  0  0  0  0
 13 16  1  0  0  0  0
 14 15  1  0  0  0  0
 14 36  1  0  0  0  0
 15 37  1  0  0  0  0
 16 17  1  0  0  0  0
 16 21  2  0  0  0  0
 17 18  2  0  0  0  0
 17 38  1  0  0  0  0
 18 19  1  0  0  0  0
 18 39  1  0  0  0  0
 19 20  2  0  0  0  0
 19 40  1  0  0  0  0
 20 21  1  0  0  0  0
 20 41  1  0  0  0  0
 21 42  1  0  0  0  0
 22 23  2  0  0  0  0
 22 24  1  0  0  0  0
 24 25  1  0  0  0  0
 24 43  1  0  0  0  0
 25 26  2  0  0  0  0
 25 27  1  0  0  0  0
 26 44  1  0  0  0  0
 26 45  1  0  0  0  0
 27 46  1  0  0  0  0
 27 47  1  0  0  0  0
 28 48  1  0  0  0  0
 28 49  1  0  0  0  0
 28 50  1  0  0  0  0
M  CHG  1  26   1
M  END
$$$$
Target_lig_1124
 OpenBabel04172516573D

 55 56  0  0  0  0  0  0  0  0999 V2000
    2.9417    1.1682    1.5405 N   0  0  0  0  0  0  0  0  0  0  0  0
    2.4181   -0.0407    2.1681 C   0  0  0  0  0  0  0  0  0  0  0  0
    2.9757   -1.3049    1.5158 C   0  0  0  0  0  0  0  0  0  0  0  0
    4.4928   -1.3773    1.6247 C   0  0  0  0  0  0  0  0  0  0  0  0
    4.9692   -2.5733    0.9942 O   0  0  0  0  0  0  0  0  0  0  0  0
    6.3230   -2.7937    1.0991 C   0  0  0  0  0  0  0  0  0  0  0  0
    7.2084   -1.8751    1.6809 C   0  0  0  0  0  0  0  0  0  0  0  0
    8.5675   -2.1555    1.7972 C   0  0  0  0  0  0  0  0  0  0  0  0
    9.0835   -3.3673    1.3369 C   0  0  0  0  0  0  0  0  0  0  0  0
    8.2062   -4.2803    0.7359 C   0  0  0  0  0  0  0  0  0  0  0  0
    6.8267   -4.0061    0.5931 C   0  0  0  0  0  0  0  0  0  0  0  0
    5.9700   -5.0085   -0.1605 C   0  0  0  0  0  0  0  0  0  0  0  0
    6.0245   -6.3336    0.4650 N   0  0  0  0  0  0  0  0  0  0  0  0
    5.2611   -7.3361   -0.2818 C   0  0  0  0  0  0  0  0  0  0  0  0
    5.3277   -8.6600    0.4857 C   0  0  0  0  0  0  0  0  0  0  0  0
    4.5643   -9.7959   -0.2018 C   0  0  0  0  0  0  0  0  0  0  0  0
    4.6718  -11.0816    0.6231 C   0  0  0  0  0  0  0  0  0  0  0  0
    4.0222  -12.1893   -0.0517 N   0  0  0  0  0  0  0  0  0  0  0  0
    3.8463  -13.4164    0.4965 C   0  0  0  0  0  0  0  0  0  0  0  0
    4.3442  -13.8728    1.5834 N   0  0  0  0  0  0  0  0  0  0  0  0
    3.0627  -14.2035   -0.2576 N   0  0  0  0  0  0  0  0  0  0  0  0
   10.5135   -3.6334    1.4567 C   0  0  0  0  0  0  0  0  0  0  0  0
   11.0193   -4.9017    1.6715 C   0  0  0  0  0  0  0  0  0  0  0  0
   12.7289   -4.9240    1.7826 S   0  0  0  0  0  0  0  0  0  0  0  0
   12.8175   -3.2327    1.5613 C   0  0  0  0  0  0  0  0  0  0  0  0
   11.5738   -2.6640    1.4030 C   0  0  0  0  0  0  0  0  0  0  0  0
    2.4998    1.9889    1.9545 H   0  0  0  0  0  0  0  0  0  0  0  0
    2.6917    1.1799    0.5515 H   0  0  0  0  0  0  0  0  0  0  0  0
    1.3266   -0.0422    2.0924 H   0  0  0  0  0  0  0  0  0  0  0  0
    2.6741   -0.0252    3.2341 H   0  0  0  0  0  0  0  0  0  0  0  0
    2.6774   -1.3586    0.4619 H   0  0  0  0  0  0  0  0  0  0  0  0
    2.5374   -2.1876    1.9977 H   0  0  0  0  0  0  0  0  0  0  0  0
    4.7657   -1.3806    2.6883 H   0  0  0  0  0  0  0  0  0  0  0  0
    4.9348   -0.5093    1.1220 H   0  0  0  0  0  0  0  0  0  0  0  0
    6.8794   -0.9108    2.0569 H   0  0  0  0  0  0  0  0  0  0  0  0
    9.2106   -1.4128    2.2629 H   0  0  0  0  0  0  0  0  0  0  0  0
    8.5853   -5.2237    0.3464 H   0  0  0  0  0  0  0  0  0  0  0  0
    6.3584   -5.0625   -1.1865 H   0  0  0  0  0  0  0  0  0  0  0  0
    4.9311   -4.6703   -0.2291 H   0  0  0  0  0  0  0  0  0  0  0  0
    5.6520   -6.2451    1.4108 H   0  0  0  0  0  0  0  0  0  0  0  0
    5.6873   -7.4681   -1.2804 H   0  0  0  0  0  0  0  0  0  0  0  0
    4.2157   -7.0234   -0.3905 H   0  0  0  0  0  0  0  0  0  0  0  0
    4.9186   -8.5171    1.4946 H   0  0  0  0  0  0  0  0  0  0  0  0
    6.3778   -8.9578    0.6061 H   0  0  0  0  0  0  0  0  0  0  0  0
    4.9668   -9.9639   -1.2083 H   0  0  0  0  0  0  0  0  0  0  0  0
    3.5095   -9.5184   -0.3227 H   0  0  0  0  0  0  0  0  0  0  0  0
    4.2199  -10.9231    1.6095 H   0  0  0  0  0  0  0  0  0  0  0  0
    5.7279  -11.3344    0.7746 H   0  0  0  0  0  0  0  0  0  0  0  0
    3.3168  -11.9300   -0.7318 H   0  0  0  0  0  0  0  0  0  0  0  0
    4.9102  -13.1515    2.0299 H   0  0  0  0  0  0  0  0  0  0  0  0
    3.2366  -14.1390   -1.2506 H   0  0  0  0  0  0  0  0  0  0  0  0
    3.1464  -15.1635    0.0659 H   0  0  0  0  0  0  0  0  0  0  0  0
   10.4741   -5.8305    1.7787 H   0  0  0  0  0  0  0  0  0  0  0  0
   13.7767   -2.7326    1.5561 H   0  0  0  0  0  0  0  0  0  0  0  0
   11.4306   -1.6041    1.2480 H   0  0  0  0  0  0  0  0  0  0  0  0
  1  2  1  0  0  0  0
  1 27  1  0  0  0  0
  1 28  1  0  0  0  0
  2  3  1  0  0  0  0
  2 29  1  0  0  0  0
  2 30  1  0  0  0  0
  3  4  1  0  0  0  0
  3 31  1  0  0  0  0
  3 32  1  0  0  0  0
  4  5  1  0  0  0  0
  4 33  1  0  0  0  0
  4 34  1  0  0  0  0
  5  6  1  0  0  0  0
  6  7  1  0  0  0  0
  6 11  2  0  0  0  0
  7  8  2  0  0  0  0
  7 35  1  0  0  0  0
  8  9  1  0  0  0  0
  8 36  1  0  0  0  0
  9 10  2  0  0  0  0
  9 22  1  0  0  0  0
 10 11  1  0  0  0  0
 10 37  1  0  0  0  0
 11 12  1  0  0  0  0
 12 13  1  0  0  0  0
 12 38  1  0  0  0  0
 12 39  1  0  0  0  0
 13 14  1  0  0  0  0
 13 40  1  0  0  0  0
 14 15  1  0  0  0  0
 14 41  1  0  0  0  0
 14 42  1  0  0  0  0
 15 16  1  0  0  0  0
 15 43  1  0  0  0  0
 15 44  1  0  0  0  0
 16 17  1  0  0  0  0
 16 45  1  0  0  0  0
 16 46  1  0  0  0  0
 17 18  1  0  0  0  0
 17 47  1  0  0  0  0
 17 48  1  0  0  0  0
 18 19  1  0  0  0  0
 18 49  1  0  0  0  0
 19 20  2  0  0  0  0
 19 21  1  0  0  0  0
 20 50  1  0  0  0  0
 21 51  1  0  0  0  0
 21 52  1  0  0  0  0
 22 23  2  0  0  0  0
 22 26  1  0  0  0  0
 23 24  1  0  0  0  0
 23 53  1  0  0  0  0
 24 25  1  0  0  0  0
 25 26  2  0  0  0  0
 25 54  1  0  0  0  0
 26 55  1  0  0  0  0
M  END
$$$$
Target_lig_1125
 OpenBabel04172516573D

 61 63  0  0  0  0  0  0  0  0999 V2000
    3.1729    1.4753    1.6857 N   0  0  0  0  0  0  0  0  0  0  0  0
    2.6924    0.3338    2.4578 C   0  0  0  0  0  0  0  0  0  0  0  0
    3.1861   -0.9982    1.8854 C   0  0  0  0  0  0  0  0  0  0  0  0
    4.7079   -1.0783    1.8963 C   0  0  0  0  0  0  0  0  0  0  0  0
    5.1683   -2.3459    1.4018 O   0  0  0  0  0  0  0  0  0  0  0  0
    6.5379   -2.5139    1.4326 C   0  0  0  0  0  0  0  0  0  0  0  0
    7.4138   -1.5074    1.8525 C   0  0  0  0  0  0  0  0  0  0  0  0
    8.7870   -1.7202    1.8922 C   0  0  0  0  0  0  0  0  0  0  0  0
    9.3419   -2.9444    1.5128 C   0  0  0  0  0  0  0  0  0  0  0  0
    8.4763   -3.9599    1.0912 C   0  0  0  0  0  0  0  0  0  0  0  0
    7.0704   -3.7544    1.0253 C   0  0  0  0  0  0  0  0  0  0  0  0
    6.1969   -4.8692    0.4807 C   0  0  0  0  0  0  0  0  0  0  0  0
    6.3191   -6.0745    1.3071 N   0  0  0  0  0  0  0  0  0  0  0  0
    5.4626   -7.1594    0.8303 C   0  0  0  0  0  0  0  0  0  0  0  0
    5.5918   -8.3929    1.7369 C   0  0  0  0  0  0  0  0  0  0  0  0
    5.1338   -8.1365    3.1768 C   0  0  0  0  0  0  0  0  0  0  0  0
    5.3321   -9.3654    4.0604 C   0  0  0  0  0  0  0  0  0  0  0  0
    4.8654   -9.0799    5.4055 N   0  0  0  0  0  0  0  0  0  0  0  0
    4.9526   -9.9543    6.4299 C   0  0  0  0  0  0  0  0  0  0  0  0
    5.3202  -11.1796    6.4044 N   0  0  0  0  0  0  0  0  0  0  0  0
    4.5676   -9.3962    7.5924 N   0  0  0  0  0  0  0  0  0  0  0  0
   10.7913   -3.0784    1.5459 C   0  0  0  0  0  0  0  0  0  0  0  0
   11.7064   -4.0817    1.8023 C   0  0  0  0  0  0  0  0  0  0  0  0
   13.0014   -3.4884    1.7090 C   0  0  0  0  0  0  0  0  0  0  0  0
   12.7839   -2.1567    1.3849 C   0  0  0  0  0  0  0  0  0  0  0  0
   11.4572   -1.9131    1.2818 O   0  0  0  0  0  0  0  0  0  0  0  0
   13.7836   -1.2069    1.1978 C   0  0  0  0  0  0  0  0  0  0  0  0
   15.0964   -1.6494    1.3561 C   0  0  0  0  0  0  0  0  0  0  0  0
   15.3687   -2.9804    1.6873 C   0  0  0  0  0  0  0  0  0  0  0  0
   14.3319   -3.9142    1.8715 C   0  0  0  0  0  0  0  0  0  0  0  0
    2.7916    2.3379    2.0741 H   0  0  0  0  0  0  0  0  0  0  0  0
    2.8251    1.4181    0.7285 H   0  0  0  0  0  0  0  0  0  0  0  0
    1.5979    0.3457    2.4734 H   0  0  0  0  0  0  0  0  0  0  0  0
    3.0352    0.4428    3.4933 H   0  0  0  0  0  0  0  0  0  0  0  0
    2.8125   -1.1441    0.8647 H   0  0  0  0  0  0  0  0  0  0  0  0
    2.7754   -1.8235    2.4795 H   0  0  0  0  0  0  0  0  0  0  0  0
    5.0471   -0.9448    2.9319 H   0  0  0  0  0  0  0  0  0  0  0  0
    5.1076   -0.2821    1.2572 H   0  0  0  0  0  0  0  0  0  0  0  0
    7.0765   -0.5214    2.1523 H   0  0  0  0  0  0  0  0  0  0  0  0
    9.4267   -0.9049    2.2232 H   0  0  0  0  0  0  0  0  0  0  0  0
    8.8807   -4.9231    0.7817 H   0  0  0  0  0  0  0  0  0  0  0  0
    6.5116   -5.0807   -0.5487 H   0  0  0  0  0  0  0  0  0  0  0  0
    5.1462   -4.5579    0.4345 H   0  0  0  0  0  0  0  0  0  0  0  0
    6.0454   -5.8061    2.2501 H   0  0  0  0  0  0  0  0  0  0  0  0
    5.7605   -7.4465   -0.1853 H   0  0  0  0  0  0  0  0  0  0  0  0
    4.4126   -6.8449    0.7931 H   0  0  0  0  0  0  0  0  0  0  0  0
    6.6330   -8.7395    1.7351 H   0  0  0  0  0  0  0  0  0  0  0  0
    4.9910   -9.2058    1.3092 H   0  0  0  0  0  0  0  0  0  0  0  0
    4.0783   -7.8374    3.1795 H   0  0  0  0  0  0  0  0  0  0  0  0
    5.6976   -7.3065    3.6170 H   0  0  0  0  0  0  0  0  0  0  0  0
    6.3938   -9.6365    4.0853 H   0  0  0  0  0  0  0  0  0  0  0  0
    4.7710  -10.2124    3.6501 H   0  0  0  0  0  0  0  0  0  0  0  0
    5.0589   -8.1317    5.7125 H   0  0  0  0  0  0  0  0  0  0  0  0
    5.5787  -11.4371    5.4518 H   0  0  0  0  0  0  0  0  0  0  0  0
    3.6984   -8.8855    7.5083 H   0  0  0  0  0  0  0  0  0  0  0  0
    4.4854  -10.1231    8.2974 H   0  0  0  0  0  0  0  0  0  0  0  0
   11.4759   -5.1052    2.0600 H   0  0  0  0  0  0  0  0  0  0  0  0
   13.5409   -0.1796    0.9498 H   0  0  0  0  0  0  0  0  0  0  0  0
   15.9143   -0.9460    1.2191 H   0  0  0  0  0  0  0  0  0  0  0  0
   16.4031   -3.2975    1.8048 H   0  0  0  0  0  0  0  0  0  0  0  0
   14.5642   -4.9411    2.1334 H   0  0  0  0  0  0  0  0  0  0  0  0
  1  2  1  0  0  0  0
  1 31  1  0  0  0  0
  1 32  1  0  0  0  0
  2  3  1  0  0  0  0
  2 33  1  0  0  0  0
  2 34  1  0  0  0  0
  3  4  1  0  0  0  0
  3 35  1  0  0  0  0
  3 36  1  0  0  0  0
  4  5  1  0  0  0  0
  4 37  1  0  0  0  0
  4 38  1  0  0  0  0
  5  6  1  0  0  0  0
  6  7  1  0  0  0  0
  6 11  2  0  0  0  0
  7  8  2  0  0  0  0
  7 39  1  0  0  0  0
  8  9  1  0  0  0  0
  8 40  1  0  0  0  0
  9 10  2  0  0  0  0
  9 22  1  0  0  0  0
 10 11  1  0  0  0  0
 10 41  1  0  0  0  0
 11 12  1  0  0  0  0
 12 13  1  0  0  0  0
 12 42  1  0  0  0  0
 12 43  1  0  0  0  0
 13 14  1  0  0  0  0
 13 44  1  0  0  0  0
 14 15  1  0  0  0  0
 14 45  1  0  0  0  0
 14 46  1  0  0  0  0
 15 16  1  0  0  0  0
 15 47  1  0  0  0  0
 15 48  1  0  0  0  0
 16 17  1  0  0  0  0
 16 49  1  0  0  0  0
 16 50  1  0  0  0  0
 17 18  1  0  0  0  0
 17 51  1  0  0  0  0
 17 52  1  0  0  0  0
 18 19  1  0  0  0  0
 18 53  1  0  0  0  0
 19 20  2  0  0  0  0
 19 21  1  0  0  0  0
 20 54  1  0  0  0  0
 21 55  1  0  0  0  0
 21 56  1  0  0  0  0
 22 23  2  0  0  0  0
 22 26  1  0  0  0  0
 23 24  1  0  0  0  0
 23 57  1  0  0  0  0
 24 25  1  0  0  0  0
 24 30  2  0  0  0  0
 25 26  1  0  0  0  0
 25 27  2  0  0  0  0
 27 28  1  0  0  0  0
 27 58  1  0  0  0  0
 28 29  2  0  0  0  0
 28 59  1  0  0  0  0
 29 30  1  0  0  0  0
 29 60  1  0  0  0  0
 30 61  1  0  0  0  0
M  END
$$$$
Target_lig_1126
 OpenBabel04172516573D

 68 71  0  0  0  0  0  0  0  0999 V2000
    3.1786   -1.2115   -1.6901 N   0  0  0  0  0  0  0  0  0  0  0  0
    2.7500   -0.0335   -2.4382 C   0  0  0  0  0  0  0  0  0  0  0  0
    3.2768    1.2622   -1.8156 C   0  0  0  0  0  0  0  0  0  0  0  0
    4.8023    1.2887   -1.7944 C   0  0  0  0  0  0  0  0  0  0  0  0
    5.2900    2.5154   -1.2334 O   0  0  0  0  0  0  0  0  0  0  0  0
    6.6590    2.6749   -1.2747 C   0  0  0  0  0  0  0  0  0  0  0  0
    7.5385    1.6686   -1.7005 C   0  0  0  0  0  0  0  0  0  0  0  0
    8.9159    1.8892   -1.7770 C   0  0  0  0  0  0  0  0  0  0  0  0
    9.4665    3.1261   -1.4360 C   0  0  0  0  0  0  0  0  0  0  0  0
    8.5874    4.1195   -0.9640 C   0  0  0  0  0  0  0  0  0  0  0  0
    7.1873    3.9128   -0.8666 C   0  0  0  0  0  0  0  0  0  0  0  0
    6.3238    5.0035   -0.2506 C   0  0  0  0  0  0  0  0  0  0  0  0
    6.4459    6.2894   -0.9551 N   0  0  0  0  0  0  0  0  0  0  0  0
    5.5742    7.3403   -0.3958 C   0  0  0  0  0  0  0  0  0  0  0  0
    5.9677    7.7980    1.0196 C   0  0  0  0  0  0  0  0  0  0  0  0
    5.1432    8.9525    1.5525 C   0  0  0  0  0  0  0  0  0  0  0  0
    3.9572    8.7201    2.2621 C   0  0  0  0  0  0  0  0  0  0  0  0
    3.2324    9.7841    2.8149 C   0  0  0  0  0  0  0  0  0  0  0  0
    3.6704   11.1074    2.6573 C   0  0  0  0  0  0  0  0  0  0  0  0
    4.8528   11.3382    1.9415 C   0  0  0  0  0  0  0  0  0  0  0  0
    5.5749   10.2749    1.3862 C   0  0  0  0  0  0  0  0  0  0  0  0
    2.8905   12.2588    3.2450 C   0  0  0  0  0  0  0  0  0  0  0  0
    3.4011   12.6203    4.5484 N   0  0  0  0  0  0  0  0  0  0  0  0
    2.9194   13.6493    5.2770 C   0  0  0  0  0  0  0  0  0  0  0  0
    2.0749   14.5531    4.9389 N   0  0  0  0  0  0  0  0  0  0  0  0
    3.4603   13.6947    6.5103 N   0  0  0  0  0  0  0  0  0  0  0  0
   10.9158    3.3526   -1.6173 C   0  0  0  0  0  0  0  0  0  0  0  0
   11.7749    2.7662   -2.5332 C   0  0  0  0  0  0  0  0  0  0  0  0
   13.1159    3.2799   -2.4884 C   0  0  0  0  0  0  0  0  0  0  0  0
   13.2462    4.2387   -1.4850 C   0  0  0  0  0  0  0  0  0  0  0  0
   11.7752    4.4489   -0.6216 S   0  0  0  0  0  0  0  0  0  0  0  0
   14.4623    4.9145   -1.2645 C   0  0  0  0  0  0  0  0  0  0  0  0
   15.5585    4.6196   -2.0777 C   0  0  0  0  0  0  0  0  0  0  0  0
   15.4575    3.6603   -3.0758 C   0  0  0  0  0  0  0  0  0  0  0  0
   14.2506    2.9837   -3.2841 C   0  0  0  0  0  0  0  0  0  0  0  0
    2.7873   -2.0509   -2.1175 H   0  0  0  0  0  0  0  0  0  0  0  0
    2.8023   -1.1748   -0.7426 H   0  0  0  0  0  0  0  0  0  0  0  0
    1.6561   -0.0095   -2.4754 H   0  0  0  0  0  0  0  0  0  0  0  0
    3.1102   -0.1231   -3.4695 H   0  0  0  0  0  0  0  0  0  0  0  0
    2.8857    1.3912   -0.7993 H   0  0  0  0  0  0  0  0  0  0  0  0
    2.9058    2.1187   -2.3921 H   0  0  0  0  0  0  0  0  0  0  0  0
    5.1590    1.1873   -2.8276 H   0  0  0  0  0  0  0  0  0  0  0  0
    5.1645    0.4554   -1.1820 H   0  0  0  0  0  0  0  0  0  0  0  0
    7.1906    0.6806   -1.9855 H   0  0  0  0  0  0  0  0  0  0  0  0
    9.5472    1.0686   -2.1100 H   0  0  0  0  0  0  0  0  0  0  0  0
    8.9774    5.0932   -0.6697 H   0  0  0  0  0  0  0  0  0  0  0  0
    6.6549    5.1095    0.7894 H   0  0  0  0  0  0  0  0  0  0  0  0
    5.2720    4.7001   -0.2225 H   0  0  0  0  0  0  0  0  0  0  0  0
    6.1760    6.1277   -1.9267 H   0  0  0  0  0  0  0  0  0  0  0  0
    4.5259    7.0123   -0.4176 H   0  0  0  0  0  0  0  0  0  0  0  0
    5.6340    8.2029   -1.0705 H   0  0  0  0  0  0  0  0  0  0  0  0
    7.0269    8.0870    1.0301 H   0  0  0  0  0  0  0  0  0  0  0  0
    5.8813    6.9672    1.7293 H   0  0  0  0  0  0  0  0  0  0  0  0
    3.5965    7.7037    2.4068 H   0  0  0  0  0  0  0  0  0  0  0  0
    2.3219    9.5704    3.3717 H   0  0  0  0  0  0  0  0  0  0  0  0
    5.2230   12.3541    1.8145 H   0  0  0  0  0  0  0  0  0  0  0  0
    6.4903   10.4874    0.8377 H   0  0  0  0  0  0  0  0  0  0  0  0
    1.8281   11.9960    3.3116 H   0  0  0  0  0  0  0  0  0  0  0  0
    2.9636   13.1177    2.5664 H   0  0  0  0  0  0  0  0  0  0  0  0
    3.6470   11.8184    5.1200 H   0  0  0  0  0  0  0  0  0  0  0  0
    1.7596   14.3941    3.9825 H   0  0  0  0  0  0  0  0  0  0  0  0
    4.4656   13.5936    6.4987 H   0  0  0  0  0  0  0  0  0  0  0  0
    3.2000   14.5731    6.9536 H   0  0  0  0  0  0  0  0  0  0  0  0
   11.4558    2.0243   -3.2556 H   0  0  0  0  0  0  0  0  0  0  0  0
   14.5424    5.6640   -0.4826 H   0  0  0  0  0  0  0  0  0  0  0  0
   16.4959    5.1496   -1.9267 H   0  0  0  0  0  0  0  0  0  0  0  0
   16.3174    3.4384   -3.7034 H   0  0  0  0  0  0  0  0  0  0  0  0
   14.1840    2.2394   -4.0738 H   0  0  0  0  0  0  0  0  0  0  0  0
  1  2  1  0  0  0  0
  1 36  1  0  0  0  0
  1 37  1  0  0  0  0
  2  3  1  0  0  0  0
  2 38  1  0  0  0  0
  2 39  1  0  0  0  0
  3  4  1  0  0  0  0
  3 40  1  0  0  0  0
  3 41  1  0  0  0  0
  4  5  1  0  0  0  0
  4 42  1  0  0  0  0
  4 43  1  0  0  0  0
  5  6  1  0  0  0  0
  6  7  1  0  0  0  0
  6 11  2  0  0  0  0
  7  8  2  0  0  0  0
  7 44  1  0  0  0  0
  8  9  1  0  0  0  0
  8 45  1  0  0  0  0
  9 10  2  0  0  0  0
  9 27  1  0  0  0  0
 10 11  1  0  0  0  0
 10 46  1  0  0  0  0
 11 12  1  0  0  0  0
 12 13  1  0  0  0  0
 12 47  1  0  0  0  0
 12 48  1  0  0  0  0
 13 14  1  0  0  0  0
 13 49  1  0  0  0  0
 14 15  1  0  0  0  0
 14 50  1  0  0  0  0
 14 51  1  0  0  0  0
 15 16  1  0  0  0  0
 15 52  1  0  0  0  0
 15 53  1  0  0  0  0
 16 17  1  0  0  0  0
 16 21  2  0  0  0  0
 17 18  2  0  0  0  0
 17 54  1  0  0  0  0
 18 19  1  0  0  0  0
 18 55  1  0  0  0  0
 19 20  2  0  0  0  0
 19 22  1  0  0  0  0
 20 21  1  0  0  0  0
 20 56  1  0  0  0  0
 21 57  1  0  0  0  0
 22 23  1  0  0  0  0
 22 58  1  0  0  0  0
 22 59  1  0  0  0  0
 23 24  1  0  0  0  0
 23 60  1  0  0  0  0
 24 25  2  0  0  0  0
 24 26  1  0  0  0  0
 25 61  1  0  0  0  0
 26 62  1  0  0  0  0
 26 63  1  0  0  0  0
 27 28  2  0  0  0  0
 27 31  1  0  0  0  0
 28 29  1  0  0  0  0
 28 64  1  0  0  0  0
 29 30  1  0  0  0  0
 29 35  2  0  0  0  0
 30 31  1  0  0  0  0
 30 32  2  0  0  0  0
 32 33  1  0  0  0  0
 32 65  1  0  0  0  0
 33 34  2  0  0  0  0
 33 66  1  0  0  0  0
 34 35  1  0  0  0  0
 34 67  1  0  0  0  0
 35 68  1  0  0  0  0
M  END
$$$$
Target_lig_1127
 OpenBabel04172516583D

 62 64  0  0  0  0  0  0  0  0999 V2000
    3.1247   -2.1531    0.2365 N   0  0  0  0  0  0  0  0  0  0  0  0
    2.6895   -2.2519   -1.1536 C   0  0  0  0  0  0  0  0  0  0  0  0
    3.2142   -1.0879   -1.9992 C   0  0  0  0  0  0  0  0  0  0  0  0
    4.7396   -1.0584   -2.0075 C   0  0  0  0  0  0  0  0  0  0  0  0
    5.2356    0.0278   -2.7990 O   0  0  0  0  0  0  0  0  0  0  0  0
    6.6070    0.0614   -2.9413 C   0  0  0  0  0  0  0  0  0  0  0  0
    7.4812   -0.8003   -2.2673 C   0  0  0  0  0  0  0  0  0  0  0  0
    8.8574   -0.7716   -2.5053 C   0  0  0  0  0  0  0  0  0  0  0  0
    9.4106    0.1190   -3.4274 C   0  0  0  0  0  0  0  0  0  0  0  0
    8.5382    1.0218   -4.0610 C   0  0  0  0  0  0  0  0  0  0  0  0
    7.1433    1.0197   -3.8180 C   0  0  0  0  0  0  0  0  0  0  0  0
    6.2771    2.0310   -4.5401 C   0  0  0  0  0  0  0  0  0  0  0  0
    5.5262    2.9353   -3.6620 N   0  0  0  0  0  0  0  0  0  0  0  0
    6.3478    3.8173   -2.8322 C   0  0  0  0  0  0  0  0  0  0  0  0
    7.2181    4.8138   -3.6097 C   0  0  0  0  0  0  0  0  0  0  0  0
    6.3813    5.7321   -4.5047 C   0  0  0  0  0  0  0  0  0  0  0  0
    7.2527    6.6975   -5.3175 C   0  0  0  0  0  0  0  0  0  0  0  0
    6.4620    7.5565   -6.2187 N   0  0  0  0  0  0  0  0  0  0  0  0
    5.5334    8.4221   -5.4896 C   0  0  0  0  0  0  0  0  0  0  0  0
    7.3494    8.3715   -7.0503 C   0  0  0  0  0  0  0  0  0  0  0  0
   10.8541    0.0525   -3.7356 C   0  0  0  0  0  0  0  0  0  0  0  0
   11.7037   -1.0394   -3.6690 C   0  0  0  0  0  0  0  0  0  0  0  0
   13.0417   -0.7670   -4.1164 C   0  0  0  0  0  0  0  0  0  0  0  0
   13.1792    0.5689   -4.4905 C   0  0  0  0  0  0  0  0  0  0  0  0
   11.7174    1.4401   -4.2490 S   0  0  0  0  0  0  0  0  0  0  0  0
   14.3930    1.0719   -4.9937 C   0  0  0  0  0  0  0  0  0  0  0  0
   15.4814    0.2073   -5.1262 C   0  0  0  0  0  0  0  0  0  0  0  0
   15.3737   -1.1236   -4.7489 C   0  0  0  0  0  0  0  0  0  0  0  0
   14.1650   -1.6155   -4.2381 C   0  0  0  0  0  0  0  0  0  0  0  0
    2.7331   -2.9254    0.7751 H   0  0  0  0  0  0  0  0  0  0  0  0
    2.7542   -1.2992    0.6539 H   0  0  0  0  0  0  0  0  0  0  0  0
    1.5954   -2.2735   -1.1880 H   0  0  0  0  0  0  0  0  0  0  0  0
    3.0485   -3.2016   -1.5667 H   0  0  0  0  0  0  0  0  0  0  0  0
    2.8210   -0.1326   -1.6315 H   0  0  0  0  0  0  0  0  0  0  0  0
    2.8448   -1.1900   -3.0273 H   0  0  0  0  0  0  0  0  0  0  0  0
    5.0959   -2.0102   -2.4220 H   0  0  0  0  0  0  0  0  0  0  0  0
    5.0980   -0.9311   -0.9801 H   0  0  0  0  0  0  0  0  0  0  0  0
    7.1290   -1.5290   -1.5441 H   0  0  0  0  0  0  0  0  0  0  0  0
    9.4860   -1.4684   -1.9564 H   0  0  0  0  0  0  0  0  0  0  0  0
    8.9339    1.7371   -4.7805 H   0  0  0  0  0  0  0  0  0  0  0  0
    5.5584    1.4801   -5.1601 H   0  0  0  0  0  0  0  0  0  0  0  0
    6.8685    2.6117   -5.2581 H   0  0  0  0  0  0  0  0  0  0  0  0
    4.9459    2.3511   -3.0565 H   0  0  0  0  0  0  0  0  0  0  0  0
    6.9725    3.2345   -2.1456 H   0  0  0  0  0  0  0  0  0  0  0  0
    5.6634    4.3925   -2.1951 H   0  0  0  0  0  0  0  0  0  0  0  0
    7.9732    4.2859   -4.2019 H   0  0  0  0  0  0  0  0  0  0  0  0
    7.7704    5.4278   -2.8859 H   0  0  0  0  0  0  0  0  0  0  0  0
    5.6943    6.2875   -3.8569 H   0  0  0  0  0  0  0  0  0  0  0  0
    5.7733    5.1369   -5.1953 H   0  0  0  0  0  0  0  0  0  0  0  0
    7.9411    6.0941   -5.9245 H   0  0  0  0  0  0  0  0  0  0  0  0
    7.8701    7.3048   -4.6429 H   0  0  0  0  0  0  0  0  0  0  0  0
    4.7482    7.8381   -4.9994 H   0  0  0  0  0  0  0  0  0  0  0  0
    5.0097    9.0953   -6.1775 H   0  0  0  0  0  0  0  0  0  0  0  0
    6.0434    9.0299   -4.7340 H   0  0  0  0  0  0  0  0  0  0  0  0
    8.0067    7.7364   -7.6544 H   0  0  0  0  0  0  0  0  0  0  0  0
    7.9716    9.0468   -6.4519 H   0  0  0  0  0  0  0  0  0  0  0  0
    6.7669    8.9751   -7.7559 H   0  0  0  0  0  0  0  0  0  0  0  0
   11.3796   -2.0246   -3.3536 H   0  0  0  0  0  0  0  0  0  0  0  0
   14.4820    2.1139   -5.2868 H   0  0  0  0  0  0  0  0  0  0  0  0
   16.4187    0.5839   -5.5289 H   0  0  0  0  0  0  0  0  0  0  0  0
   16.2282   -1.7883   -4.8548 H   0  0  0  0  0  0  0  0  0  0  0  0
   14.0962   -2.6647   -3.9564 H   0  0  0  0  0  0  0  0  0  0  0  0
  1  2  1  0  0  0  0
  1 30  1  0  0  0  0
  1 31  1  0  0  0  0
  2  3  1  0  0  0  0
  2 32  1  0  0  0  0
  2 33  1  0  0  0  0
  3  4  1  0  0  0  0
  3 34  1  0  0  0  0
  3 35  1  0  0  0  0
  4  5  1  0  0  0  0
  4 36  1  0  0  0  0
  4 37  1  0  0  0  0
  5  6  1  0  0  0  0
  6  7  1  0  0  0  0
  6 11  2  0  0  0  0
  7  8  2  0  0  0  0
  7 38  1  0  0  0  0
  8  9  1  0  0  0  0
  8 39  1  0  0  0  0
  9 10  2  0  0  0  0
  9 21  1  0  0  0  0
 10 11  1  0  0  0  0
 10 40  1  0  0  0  0
 11 12  1  0  0  0  0
 12 13  1  0  0  0  0
 12 41  1  0  0  0  0
 12 42  1  0  0  0  0
 13 14  1  0  0  0  0
 13 43  1  0  0  0  0
 14 15  1  0  0  0  0
 14 44  1  0  0  0  0
 14 45  1  0  0  0  0
 15 16  1  0  0  0  0
 15 46  1  0  0  0  0
 15 47  1  0  0  0  0
 16 17  1  0  0  0  0
 16 48  1  0  0  0  0
 16 49  1  0  0  0  0
 17 18  1  0  0  0  0
 17 50  1  0  0  0  0
 17 51  1  0  0  0  0
 18 19  1  0  0  0  0
 18 20  1  0  0  0  0
 19 52  1  0  0  0  0
 19 53  1  0  0  0  0
 19 54  1  0  0  0  0
 20 55  1  0  0  0  0
 20 56  1  0  0  0  0
 20 57  1  0  0  0  0
 21 22  2  0  0  0  0
 21 25  1  0  0  0  0
 22 23  1  0  0  0  0
 22 58  1  0  0  0  0
 23 24  1  0  0  0  0
 23 29  2  0  0  0  0
 24 25  1  0  0  0  0
 24 26  2  0  0  0  0
 26 27  1  0  0  0  0
 26 59  1  0  0  0  0
 27 28  2  0  0  0  0
 27 60  1  0  0  0  0
 28 29  1  0  0  0  0
 28 61  1  0  0  0  0
 29 62  1  0  0  0  0
M  END
$$$$
Target_lig_1128
 OpenBabel04172516583D

 63 66  0  0  0  0  0  0  0  0999 V2000
    3.0235   -1.6835   -0.6441 N   0  0  0  0  0  0  0  0  0  0  0  0
    2.5973   -1.0506   -1.8887 C   0  0  0  0  0  0  0  0  0  0  0  0
    3.1730    0.3605   -2.0362 C   0  0  0  0  0  0  0  0  0  0  0  0
    4.6991    0.3367   -2.0519 C   0  0  0  0  0  0  0  0  0  0  0  0
    5.2360    1.6568   -2.1899 O   0  0  0  0  0  0  0  0  0  0  0  0
    6.6072    1.7234   -2.3097 C   0  0  0  0  0  0  0  0  0  0  0  0
    7.4575    0.6177   -2.1950 C   0  0  0  0  0  0  0  0  0  0  0  0
    8.8372    0.7384   -2.3983 C   0  0  0  0  0  0  0  0  0  0  0  0
    9.4151    1.9687   -2.7181 C   0  0  0  0  0  0  0  0  0  0  0  0
    8.5624    3.0857   -2.7818 C   0  0  0  0  0  0  0  0  0  0  0  0
    7.1666    2.9854   -2.5662 C   0  0  0  0  0  0  0  0  0  0  0  0
    6.3152    4.2364   -2.6495 C   0  0  0  0  0  0  0  0  0  0  0  0
    5.6270    4.6078   -1.4038 N   0  0  0  0  0  0  0  0  0  0  0  0
    6.4960    4.9349   -0.2623 C   0  0  0  0  0  0  0  0  0  0  0  0
    7.4140    6.1135   -0.5912 C   0  0  0  0  0  0  0  0  0  0  0  0
    8.2943    6.6867    0.5395 C   0  0  0  0  0  0  0  0  0  0  0  0
    9.1166    7.8525   -0.0502 C   0  0  0  0  0  0  0  0  0  0  0  0
   10.2164    7.3458   -0.9893 C   0  0  0  0  0  0  0  0  0  0  0  0
   11.1387    6.4582   -0.2782 N   0  0  0  0  0  0  0  0  0  0  0  0
   10.4421    5.3087    0.3034 C   0  0  0  0  0  0  0  0  0  0  0  0
    9.2671    5.6980    1.2011 C   0  0  0  0  0  0  0  0  0  0  0  0
   10.8651    2.0524   -3.0078 C   0  0  0  0  0  0  0  0  0  0  0  0
   11.7116    1.0807   -3.5179 C   0  0  0  0  0  0  0  0  0  0  0  0
   13.0641    1.5331   -3.7323 C   0  0  0  0  0  0  0  0  0  0  0  0
   13.2102    2.8594   -3.3309 C   0  0  0  0  0  0  0  0  0  0  0  0
   11.7433    3.4925   -2.7157 S   0  0  0  0  0  0  0  0  0  0  0  0
   14.4385    3.5401   -3.4456 C   0  0  0  0  0  0  0  0  0  0  0  0
   15.5326    2.8678   -3.9928 C   0  0  0  0  0  0  0  0  0  0  0  0
   15.4151    1.5478   -4.3953 C   0  0  0  0  0  0  0  0  0  0  0  0
   14.1923    0.8706   -4.2665 C   0  0  0  0  0  0  0  0  0  0  0  0
    2.6068   -2.6113   -0.5704 H   0  0  0  0  0  0  0  0  0  0  0  0
    2.6715   -1.1508    0.1515 H   0  0  0  0  0  0  0  0  0  0  0  0
    1.5035   -1.0113   -1.9163 H   0  0  0  0  0  0  0  0  0  0  0  0
    2.9235   -1.6738   -2.7291 H   0  0  0  0  0  0  0  0  0  0  0  0
    2.8144    1.0122   -1.2305 H   0  0  0  0  0  0  0  0  0  0  0  0
    2.8052    0.8065   -2.9691 H   0  0  0  0  0  0  0  0  0  0  0  0
    5.0219   -0.2837   -2.8976 H   0  0  0  0  0  0  0  0  0  0  0  0
    5.0601   -0.0867   -1.1079 H   0  0  0  0  0  0  0  0  0  0  0  0
    7.0823   -0.3737   -1.9645 H   0  0  0  0  0  0  0  0  0  0  0  0
    9.4480   -0.1563   -2.3025 H   0  0  0  0  0  0  0  0  0  0  0  0
    8.9770    4.0631   -3.0237 H   0  0  0  0  0  0  0  0  0  0  0  0
    5.5572    4.0793   -3.4288 H   0  0  0  0  0  0  0  0  0  0  0  0
    6.9019    5.0826   -3.0280 H   0  0  0  0  0  0  0  0  0  0  0  0
    5.0193    3.8270   -1.1532 H   0  0  0  0  0  0  0  0  0  0  0  0
    7.0675    4.0544    0.0487 H   0  0  0  0  0  0  0  0  0  0  0  0
    5.8489    5.2067    0.5805 H   0  0  0  0  0  0  0  0  0  0  0  0
    6.7833    6.9339   -0.9604 H   0  0  0  0  0  0  0  0  0  0  0  0
    8.0584    5.8159   -1.4135 H   0  0  0  0  0  0  0  0  0  0  0  0
    7.6316    7.0832    1.3191 H   0  0  0  0  0  0  0  0  0  0  0  0
    9.5743    8.4265    0.7658 H   0  0  0  0  0  0  0  0  0  0  0  0
    8.4613    8.5459   -0.5903 H   0  0  0  0  0  0  0  0  0  0  0  0
   10.7729    8.1960   -1.3938 H   0  0  0  0  0  0  0  0  0  0  0  0
    9.8044    6.8251   -1.8594 H   0  0  0  0  0  0  0  0  0  0  0  0
   11.5883    6.9888    0.4674 H   0  0  0  0  0  0  0  0  0  0  0  0
   11.1703    4.7400    0.8935 H   0  0  0  0  0  0  0  0  0  0  0  0
   10.0945    4.6415   -0.4879 H   0  0  0  0  0  0  0  0  0  0  0  0
    9.6720    6.1695    2.1075 H   0  0  0  0  0  0  0  0  0  0  0  0
    8.7454    4.7964    1.5370 H   0  0  0  0  0  0  0  0  0  0  0  0
   11.3827    0.0800   -3.7729 H   0  0  0  0  0  0  0  0  0  0  0  0
   14.5253    4.5727   -3.1227 H   0  0  0  0  0  0  0  0  0  0  0  0
   16.4769    3.3922   -4.1036 H   0  0  0  0  0  0  0  0  0  0  0  0
   16.2707    1.0366   -4.8289 H   0  0  0  0  0  0  0  0  0  0  0  0
   14.1179   -0.1633   -4.5910 H   0  0  0  0  0  0  0  0  0  0  0  0
  1  2  1  0  0  0  0
  1 31  1  0  0  0  0
  1 32  1  0  0  0  0
  2  3  1  0  0  0  0
  2 33  1  0  0  0  0
  2 34  1  0  0  0  0
  3  4  1  0  0  0  0
  3 35  1  0  0  0  0
  3 36  1  0  0  0  0
  4  5  1  0  0  0  0
  4 37  1  0  0  0  0
  4 38  1  0  0  0  0
  5  6  1  0  0  0  0
  6  7  1  0  0  0  0
  6 11  2  0  0  0  0
  7  8  2  0  0  0  0
  7 39  1  0  0  0  0
  8  9  1  0  0  0  0
  8 40  1  0  0  0  0
  9 10  2  0  0  0  0
  9 22  1  0  0  0  0
 10 11  1  0  0  0  0
 10 41  1  0  0  0  0
 11 12  1  0  0  0  0
 12 13  1  0  0  0  0
 12 42  1  0  0  0  0
 12 43  1  0  0  0  0
 13 14  1  0  0  0  0
 13 44  1  0  0  0  0
 14 15  1  0  0  0  0
 14 45  1  0  0  0  0
 14 46  1  0  0  0  0
 15 16  1  0  0  0  0
 15 47  1  0  0  0  0
 15 48  1  0  0  0  0
 16 17  1  0  0  0  0
 16 21  1  0  0  0  0
 16 49  1  0  0  0  0
 17 18  1  0  0  0  0
 17 50  1  0  0  0  0
 17 51  1  0  0  0  0
 18 19  1  0  0  0  0
 18 52  1  0  0  0  0
 18 53  1  0  0  0  0
 19 20  1  0  0  0  0
 19 54  1  0  0  0  0
 20 21  1  0  0  0  0
 20 55  1  0  0  0  0
 20 56  1  0  0  0  0
 21 57  1  0  0  0  0
 21 58  1  0  0  0  0
 22 23  2  0  0  0  0
 22 26  1  0  0  0  0
 23 24  1  0  0  0  0
 23 59  1  0  0  0  0
 24 25  1  0  0  0  0
 24 30  2  0  0  0  0
 25 26  1  0  0  0  0
 25 27  2  0  0  0  0
 27 28  1  0  0  0  0
 27 60  1  0  0  0  0
 28 29  2  0  0  0  0
 28 61  1  0  0  0  0
 29 30  1  0  0  0  0
 29 62  1  0  0  0  0
 30 63  1  0  0  0  0
M  END
$$$$
Target_lig_1129
 OpenBabel04172516583D

 64 67  0  0  0  0  0  0  0  0999 V2000
    2.9829    1.6075   -0.9898 N   0  0  0  0  0  0  0  0  0  0  0  0
    2.4811    2.1266    0.2781 C   0  0  0  0  0  0  0  0  0  0  0  0
    3.0597    1.3675    1.4739 C   0  0  0  0  0  0  0  0  0  0  0  0
    4.5811    1.4660    1.5299 C   0  0  0  0  0  0  0  0  0  0  0  0
    5.0955    0.7085    2.6352 O   0  0  0  0  0  0  0  0  0  0  0  0
    6.4524    0.8132    2.8440 C   0  0  0  0  0  0  0  0  0  0  0  0
    7.3067    1.5217    1.9876 C   0  0  0  0  0  0  0  0  0  0  0  0
    8.6660    1.6594    2.2728 C   0  0  0  0  0  0  0  0  0  0  0  0
    9.2207    1.0930    3.4212 C   0  0  0  0  0  0  0  0  0  0  0  0
    8.3738    0.3454    4.2465 C   0  0  0  0  0  0  0  0  0  0  0  0
    7.0007    0.1862    3.9754 C   0  0  0  0  0  0  0  0  0  0  0  0
    6.2121   -0.6815    4.9301 C   0  0  0  0  0  0  0  0  0  0  0  0
    6.1752   -0.1694    6.3115 N   0  0  0  0  0  0  0  0  0  0  0  0
    5.4861    1.1160    6.4518 C   0  0  0  0  0  0  0  0  0  0  0  0
    4.0312    0.9879    6.0177 C   0  0  0  0  0  0  0  0  0  0  0  0
    3.1846    2.2626    6.1307 C   0  0  0  0  0  0  0  0  0  0  0  0
    3.0564    2.7975    7.5609 C   0  0  0  0  0  0  0  0  0  0  0  0
    2.2340    1.8584    8.4454 C   0  0  0  0  0  0  0  0  0  0  0  0
    0.9048    1.5940    7.8781 N   0  0  0  0  0  0  0  0  0  0  0  0
    0.9967    1.0373    6.5257 C   0  0  0  0  0  0  0  0  0  0  0  0
    1.7761    1.9598    5.5866 C   0  0  0  0  0  0  0  0  0  0  0  0
   10.6405    1.2687    3.7609 C   0  0  0  0  0  0  0  0  0  0  0  0
   11.6349    1.1620    2.7773 C   0  0  0  0  0  0  0  0  0  0  0  0
   12.9921    1.3364    3.0720 C   0  0  0  0  0  0  0  0  0  0  0  0
   13.3705    1.6336    4.3916 C   0  0  0  0  0  0  0  0  0  0  0  0
   12.3811    1.7344    5.3703 C   0  0  0  0  0  0  0  0  0  0  0  0
   11.0230    1.5565    5.0872 C   0  0  0  0  0  0  0  0  0  0  0  0
   13.0089    2.0328    6.5582 N   0  0  0  0  0  0  0  0  0  0  0  0
   14.3604    2.1301    6.3635 C   0  0  0  0  0  0  0  0  0  0  0  0
   14.6146    1.8741    5.0357 C   0  0  0  0  0  0  0  0  0  0  0  0
    2.5335    2.0959   -1.7640 H   0  0  0  0  0  0  0  0  0  0  0  0
    2.7261    0.6250   -1.0863 H   0  0  0  0  0  0  0  0  0  0  0  0
    1.3886    2.0531    0.2894 H   0  0  0  0  0  0  0  0  0  0  0  0
    2.7374    3.1900    0.3506 H   0  0  0  0  0  0  0  0  0  0  0  0
    2.7537    0.3149    1.4490 H   0  0  0  0  0  0  0  0  0  0  0  0
    2.6390    1.7823    2.3971 H   0  0  0  0  0  0  0  0  0  0  0  0
    4.8499    2.5242    1.6428 H   0  0  0  0  0  0  0  0  0  0  0  0
    5.0041    1.0628    0.6036 H   0  0  0  0  0  0  0  0  0  0  0  0
    6.9529    1.9914    1.0751 H   0  0  0  0  0  0  0  0  0  0  0  0
    9.2819    2.2350    1.5859 H   0  0  0  0  0  0  0  0  0  0  0  0
    8.7893   -0.1380    5.1294 H   0  0  0  0  0  0  0  0  0  0  0  0
    6.7040   -1.6623    4.9604 H   0  0  0  0  0  0  0  0  0  0  0  0
    5.2117   -0.9072    4.5531 H   0  0  0  0  0  0  0  0  0  0  0  0
    7.1231   -0.0833    6.6681 H   0  0  0  0  0  0  0  0  0  0  0  0
    6.0008    1.9116    5.9020 H   0  0  0  0  0  0  0  0  0  0  0  0
    5.5320    1.3886    7.5120 H   0  0  0  0  0  0  0  0  0  0  0  0
    3.5841    0.1640    6.5838 H   0  0  0  0  0  0  0  0  0  0  0  0
    3.9847    0.6932    4.9665 H   0  0  0  0  0  0  0  0  0  0  0  0
    3.6451    3.0371    5.5034 H   0  0  0  0  0  0  0  0  0  0  0  0
    2.5644    3.7788    7.5259 H   0  0  0  0  0  0  0  0  0  0  0  0
    4.0403    2.9707    8.0083 H   0  0  0  0  0  0  0  0  0  0  0  0
    2.1056    2.3174    9.4309 H   0  0  0  0  0  0  0  0  0  0  0  0
    2.7665    0.9162    8.6115 H   0  0  0  0  0  0  0  0  0  0  0  0
    0.3952    2.4752    7.8269 H   0  0  0  0  0  0  0  0  0  0  0  0
   -0.0144    0.8904    6.1313 H   0  0  0  0  0  0  0  0  0  0  0  0
    1.4445    0.0366    6.5652 H   0  0  0  0  0  0  0  0  0  0  0  0
    1.2271    2.9001    5.4570 H   0  0  0  0  0  0  0  0  0  0  0  0
    1.8417    1.4976    4.5948 H   0  0  0  0  0  0  0  0  0  0  0  0
   11.3602    0.9278    1.7494 H   0  0  0  0  0  0  0  0  0  0  0  0
   13.7378    1.2467    2.2904 H   0  0  0  0  0  0  0  0  0  0  0  0
   10.2819    1.6554    5.8751 H   0  0  0  0  0  0  0  0  0  0  0  0
   12.5323    2.1696    7.4390 H   0  0  0  0  0  0  0  0  0  0  0  0
   15.0219    2.3689    7.1843 H   0  0  0  0  0  0  0  0  0  0  0  0
   15.5896    1.8709    4.5678 H   0  0  0  0  0  0  0  0  0  0  0  0
  1  2  1  0  0  0  0
  1 31  1  0  0  0  0
  1 32  1  0  0  0  0
  2  3  1  0  0  0  0
  2 33  1  0  0  0  0
  2 34  1  0  0  0  0
  3  4  1  0  0  0  0
  3 35  1  0  0  0  0
  3 36  1  0  0  0  0
  4  5  1  0  0  0  0
  4 37  1  0  0  0  0
  4 38  1  0  0  0  0
  5  6  1  0  0  0  0
  6  7  1  0  0  0  0
  6 11  2  0  0  0  0
  7  8  2  0  0  0  0
  7 39  1  0  0  0  0
  8  9  1  0  0  0  0
  8 40  1  0  0  0  0
  9 10  2  0  0  0  0
  9 22  1  0  0  0  0
 10 11  1  0  0  0  0
 10 41  1  0  0  0  0
 11 12  1  0  0  0  0
 12 13  1  0  0  0  0
 12 42  1  0  0  0  0
 12 43  1  0  0  0  0
 13 14  1  0  0  0  0
 13 44  1  0  0  0  0
 14 15  1  0  0  0  0
 14 45  1  0  0  0  0
 14 46  1  0  0  0  0
 15 16  1  0  0  0  0
 15 47  1  0  0  0  0
 15 48  1  0  0  0  0
 16 17  1  0  0  0  0
 16 21  1  0  0  0  0
 16 49  1  0  0  0  0
 17 18  1  0  0  0  0
 17 50  1  0  0  0  0
 17 51  1  0  0  0  0
 18 19  1  0  0  0  0
 18 52  1  0  0  0  0
 18 53  1  0  0  0  0
 19 20  1  0  0  0  0
 19 54  1  0  0  0  0
 20 21  1  0  0  0  0
 20 55  1  0  0  0  0
 20 56  1  0  0  0  0
 21 57  1  0  0  0  0
 21 58  1  0  0  0  0
 22 23  1  0  0  0  0
 22 27  2  0  0  0  0
 23 24  2  0  0  0  0
 23 59  1  0  0  0  0
 24 25  1  0  0  0  0
 24 60  1  0  0  0  0
 25 26  2  0  0  0  0
 25 30  1  0  0  0  0
 26 27  1  0  0  0  0
 26 28  1  0  0  0  0
 27 61  1  0  0  0  0
 28 29  1  0  0  0  0
 28 62  1  0  0  0  0
 29 30  2  0  0  0  0
 29 63  1  0  0  0  0
 30 64  1  0  0  0  0
M  END
$$$$
Target_lig_1130
 OpenBabel04172516583D

 70 73  0  0  0  0  0  0  0  0999 V2000
    2.8754    1.2447   -1.5180 N   0  0  0  0  0  0  0  0  0  0  0  0
    2.3584    2.1356   -0.4831 C   0  0  0  0  0  0  0  0  0  0  0  0
    2.9253    1.7932    0.8935 C   0  0  0  0  0  0  0  0  0  0  0  0
    4.4425    1.9210    0.9245 C   0  0  0  0  0  0  0  0  0  0  0  0
    4.9312    1.6044    2.2325 O   0  0  0  0  0  0  0  0  0  0  0  0
    6.2797    1.8014    2.4148 C   0  0  0  0  0  0  0  0  0  0  0  0
    7.1580    2.1531    1.3881 C   0  0  0  0  0  0  0  0  0  0  0  0
    8.5112    2.3613    1.6461 C   0  0  0  0  0  0  0  0  0  0  0  0
    9.0457    2.2023    2.9313 C   0  0  0  0  0  0  0  0  0  0  0  0
    8.1591    1.8378    3.9543 C   0  0  0  0  0  0  0  0  0  0  0  0
    6.7855    1.6189    3.7121 C   0  0  0  0  0  0  0  0  0  0  0  0
    5.9167    1.1400    4.8542 C   0  0  0  0  0  0  0  0  0  0  0  0
    5.3867   -0.2178    4.6807 N   0  0  0  0  0  0  0  0  0  0  0  0
    6.3998   -1.2638    4.5013 C   0  0  0  0  0  0  0  0  0  0  0  0
    7.3411   -1.3994    5.7016 C   0  0  0  0  0  0  0  0  0  0  0  0
    8.4085   -2.5046    5.5523 C   0  0  0  0  0  0  0  0  0  0  0  0
    7.8252   -3.9205    5.4327 C   0  0  0  0  0  0  0  0  0  0  0  0
    7.2120   -4.4013    6.7483 C   0  0  0  0  0  0  0  0  0  0  0  0
    8.1792   -4.3496    7.8481 N   0  0  0  0  0  0  0  0  0  0  0  0
    8.7044   -2.9947    8.0325 C   0  0  0  0  0  0  0  0  0  0  0  0
    9.3681   -2.4686    6.7567 C   0  0  0  0  0  0  0  0  0  0  0  0
   10.4990    2.3162    3.1632 C   0  0  0  0  0  0  0  0  0  0  0  0
   11.0421    2.8441    4.3524 C   0  0  0  0  0  0  0  0  0  0  0  0
   12.4317    2.8787    4.5963 C   0  0  0  0  0  0  0  0  0  0  0  0
   13.2985    2.3645    3.6174 C   0  0  0  0  0  0  0  0  0  0  0  0
   12.7376    1.8755    2.4506 C   0  0  0  0  0  0  0  0  0  0  0  0
   11.3798    1.8370    2.1797 C   0  0  0  0  0  0  0  0  0  0  0  0
   13.6871    1.4069    1.6119 O   0  0  0  0  0  0  0  0  0  0  0  0
   14.8906    1.5601    2.2415 C   0  0  0  0  0  0  0  0  0  0  0  0
   14.6992    2.1657    3.4709 C   0  0  0  0  0  0  0  0  0  0  0  0
   16.0673    1.0681    1.5573 C   0  0  0  0  0  0  0  0  0  0  0  0
   17.1990    1.1339    2.0218 O   0  0  0  0  0  0  0  0  0  0  0  0
   15.7795    0.4938    0.3345 N   0  0  0  0  0  0  0  0  0  0  0  0
   16.7595   -0.1229   -0.5115 C   0  0  0  0  0  0  0  0  0  0  0  0
    2.4322    1.4643   -2.4095 H   0  0  0  0  0  0  0  0  0  0  0  0
    2.6170    0.2817   -1.3027 H   0  0  0  0  0  0  0  0  0  0  0  0
    1.2674    2.0667   -0.4591 H   0  0  0  0  0  0  0  0  0  0  0  0
    2.6175    3.1686   -0.7459 H   0  0  0  0  0  0  0  0  0  0  0  0
    2.6316    0.7801    1.1941 H   0  0  0  0  0  0  0  0  0  0  0  0
    2.4925    2.4665    1.6442 H   0  0  0  0  0  0  0  0  0  0  0  0
    4.7090    2.9539    0.6662 H   0  0  0  0  0  0  0  0  0  0  0  0
    4.8827    1.2230    0.2028 H   0  0  0  0  0  0  0  0  0  0  0  0
    6.8342    2.2618    0.3583 H   0  0  0  0  0  0  0  0  0  0  0  0
    9.1474    2.6383    0.8080 H   0  0  0  0  0  0  0  0  0  0  0  0
    8.5450    1.6721    4.9587 H   0  0  0  0  0  0  0  0  0  0  0  0
    5.0755    1.8343    4.9676 H   0  0  0  0  0  0  0  0  0  0  0  0
    6.4546    1.2087    5.8076 H   0  0  0  0  0  0  0  0  0  0  0  0
    4.7943   -0.1960    3.8479 H   0  0  0  0  0  0  0  0  0  0  0  0
    6.9700   -1.1088    3.5783 H   0  0  0  0  0  0  0  0  0  0  0  0
    5.8506   -2.2014    4.3666 H   0  0  0  0  0  0  0  0  0  0  0  0
    6.7390   -1.5561    6.6028 H   0  0  0  0  0  0  0  0  0  0  0  0
    7.8801   -0.4585    5.8530 H   0  0  0  0  0  0  0  0  0  0  0  0
    8.9896   -2.2906    4.6456 H   0  0  0  0  0  0  0  0  0  0  0  0
    8.6310   -4.6095    5.1446 H   0  0  0  0  0  0  0  0  0  0  0  0
    7.0831   -3.9794    4.6305 H   0  0  0  0  0  0  0  0  0  0  0  0
    6.8728   -5.4363    6.6299 H   0  0  0  0  0  0  0  0  0  0  0  0
    6.3221   -3.8137    7.0015 H   0  0  0  0  0  0  0  0  0  0  0  0
    8.9567   -4.9725    7.6289 H   0  0  0  0  0  0  0  0  0  0  0  0
    9.4399   -3.0087    8.8441 H   0  0  0  0  0  0  0  0  0  0  0  0
    7.9020   -2.3251    8.3633 H   0  0  0  0  0  0  0  0  0  0  0  0
   10.2504   -3.0821    6.5325 H   0  0  0  0  0  0  0  0  0  0  0  0
    9.7349   -1.4487    6.9250 H   0  0  0  0  0  0  0  0  0  0  0  0
   10.3807    3.2386    5.1232 H   0  0  0  0  0  0  0  0  0  0  0  0
   12.8136    3.2762    5.5322 H   0  0  0  0  0  0  0  0  0  0  0  0
   11.0341    1.4026    1.2493 H   0  0  0  0  0  0  0  0  0  0  0  0
   15.4791    2.4013    4.1824 H   0  0  0  0  0  0  0  0  0  0  0  0
   14.8021    0.4851    0.0590 H   0  0  0  0  0  0  0  0  0  0  0  0
   17.7658   -0.0399   -0.0962 H   0  0  0  0  0  0  0  0  0  0  0  0
   16.7179    0.3617   -1.4900 H   0  0  0  0  0  0  0  0  0  0  0  0
   16.4898   -1.1756   -0.6237 H   0  0  0  0  0  0  0  0  0  0  0  0
  1  2  1  0  0  0  0
  1 35  1  0  0  0  0
  1 36  1  0  0  0  0
  2  3  1  0  0  0  0
  2 37  1  0  0  0  0
  2 38  1  0  0  0  0
  3  4  1  0  0  0  0
  3 39  1  0  0  0  0
  3 40  1  0  0  0  0
  4  5  1  0  0  0  0
  4 41  1  0  0  0  0
  4 42  1  0  0  0  0
  5  6  1  0  0  0  0
  6  7  1  0  0  0  0
  6 11  2  0  0  0  0
  7  8  2  0  0  0  0
  7 43  1  0  0  0  0
  8  9  1  0  0  0  0
  8 44  1  0  0  0  0
  9 10  2  0  0  0  0
  9 22  1  0  0  0  0
 10 11  1  0  0  0  0
 10 45  1  0  0  0  0
 11 12  1  0  0  0  0
 12 13  1  0  0  0  0
 12 46  1  0  0  0  0
 12 47  1  0  0  0  0
 13 14  1  0  0  0  0
 13 48  1  0  0  0  0
 14 15  1  0  0  0  0
 14 49  1  0  0  0  0
 14 50  1  0  0  0  0
 15 16  1  0  0  0  0
 15 51  1  0  0  0  0
 15 52  1  0  0  0  0
 16 17  1  0  0  0  0
 16 21  1  0  0  0  0
 16 53  1  0  0  0  0
 17 18  1  0  0  0  0
 17 54  1  0  0  0  0
 17 55  1  0  0  0  0
 18 19  1  0  0  0  0
 18 56  1  0  0  0  0
 18 57  1  0  0  0  0
 19 20  1  0  0  0  0
 19 58  1  0  0  0  0
 20 21  1  0  0  0  0
 20 59  1  0  0  0  0
 20 60  1  0  0  0  0
 21 61  1  0  0  0  0
 21 62  1  0  0  0  0
 22 23  1  0  0  0  0
 22 27  2  0  0  0  0
 23 24  2  0  0  0  0
 23 63  1  0  0  0  0
 24 25  1  0  0  0  0
 24 64  1  0  0  0  0
 25 26  2  0  0  0  0
 25 30  1  0  0  0  0
 26 27  1  0  0  0  0
 26 28  1  0  0  0  0
 27 65  1  0  0  0  0
 28 29  1  0  0  0  0
 29 30  2  0  0  0  0
 29 31  1  0  0  0  0
 30 66  1  0  0  0  0
 31 32  2  0  0  0  0
 31 33  1  0  0  0  0
 33 34  1  0  0  0  0
 33 67  1  0  0  0  0
 34 68  1  0  0  0  0
 34 69  1  0  0  0  0
 34 70  1  0  0  0  0
M  END
$$$$
Target_lig_1131
 OpenBabel04172516583D

 59 61  0  0  0  0  0  0  0  0999 V2000
    3.5153   -1.9582   -0.7905 N   0  0  0  0  0  0  0  0  0  0  0  0
    2.5822   -0.9887   -1.3606 C   0  0  0  0  0  0  0  0  0  0  0  0
    3.1454    0.4357   -1.3505 C   0  0  0  0  0  0  0  0  0  0  0  0
    4.4638    0.5300   -2.1097 C   0  0  0  0  0  0  0  0  0  0  0  0
    5.0251    1.8442   -1.9929 O   0  0  0  0  0  0  0  0  0  0  0  0
    6.3684    1.9630   -2.2689 C   0  0  0  0  0  0  0  0  0  0  0  0
    7.2120    0.8680   -2.4930 C   0  0  0  0  0  0  0  0  0  0  0  0
    8.5774    1.0348   -2.7227 C   0  0  0  0  0  0  0  0  0  0  0  0
    9.1552    2.3033   -2.7853 C   0  0  0  0  0  0  0  0  0  0  0  0
    8.3071    3.3978   -2.5600 C   0  0  0  0  0  0  0  0  0  0  0  0
    6.9284    3.2536   -2.2919 C   0  0  0  0  0  0  0  0  0  0  0  0
    6.1430    4.5178   -2.0246 C   0  0  0  0  0  0  0  0  0  0  0  0
    6.1101    5.4554   -3.1606 N   0  0  0  0  0  0  0  0  0  0  0  0
    5.4093    4.9405   -4.3372 C   0  0  0  0  0  0  0  0  0  0  0  0
    3.9394    4.6605   -4.0272 C   0  0  0  0  0  0  0  0  0  0  0  0
    3.1145    4.1592   -5.2234 C   0  0  0  0  0  0  0  0  0  0  0  0
    3.0002    5.1841   -6.3591 C   0  0  0  0  0  0  0  0  0  0  0  0
    2.1413    6.3817   -5.9531 C   0  0  0  0  0  0  0  0  0  0  0  0
    0.7962    5.9589   -5.5552 N   0  0  0  0  0  0  0  0  0  0  0  0
    0.8419    5.0134   -4.4363 C   0  0  0  0  0  0  0  0  0  0  0  0
    1.6980    3.7815   -4.7474 C   0  0  0  0  0  0  0  0  0  0  0  0
   10.5855    2.4986   -3.0596 C   0  0  0  0  0  0  0  0  0  0  0  0
   11.3489    1.5841   -3.7887 C   0  0  0  0  0  0  0  0  0  0  0  0
   12.7022    1.8277   -3.9877 C   0  0  0  0  0  0  0  0  0  0  0  0
   13.2666    2.9821   -3.4683 C   0  0  0  0  0  0  0  0  0  0  0  0
   12.4485    3.8502   -2.7690 C   0  0  0  0  0  0  0  0  0  0  0  0
   11.1316    3.6360   -2.5580 N   0  0  0  0  0  0  0  0  0  0  0  0
    3.0790   -2.8791   -0.7541 H   0  0  0  0  0  0  0  0  0  0  0  0
    3.7319   -1.7069    0.1743 H   0  0  0  0  0  0  0  0  0  0  0  0
    1.6486   -1.0172   -0.7890 H   0  0  0  0  0  0  0  0  0  0  0  0
    2.3497   -1.2894   -2.3881 H   0  0  0  0  0  0  0  0  0  0  0  0
    3.3000    0.7720   -0.3170 H   0  0  0  0  0  0  0  0  0  0  0  0
    2.4150    1.1281   -1.7870 H   0  0  0  0  0  0  0  0  0  0  0  0
    4.3114    0.2989   -3.1734 H   0  0  0  0  0  0  0  0  0  0  0  0
    5.1238   -0.2126   -1.6584 H   0  0  0  0  0  0  0  0  0  0  0  0
    6.8624   -0.1575   -2.4777 H   0  0  0  0  0  0  0  0  0  0  0  0
    9.1824    0.1380   -2.8290 H   0  0  0  0  0  0  0  0  0  0  0  0
    8.7352    4.4006   -2.5858 H   0  0  0  0  0  0  0  0  0  0  0  0
    6.6322    5.0381   -1.1914 H   0  0  0  0  0  0  0  0  0  0  0  0
    5.1362    4.3131   -1.6502 H   0  0  0  0  0  0  0  0  0  0  0  0
    7.0653    5.6955   -3.4203 H   0  0  0  0  0  0  0  0  0  0  0  0
    5.9048    4.0498   -4.7403 H   0  0  0  0  0  0  0  0  0  0  0  0
    5.4854    5.7118   -5.1122 H   0  0  0  0  0  0  0  0  0  0  0  0
    3.4947    5.5627   -3.5933 H   0  0  0  0  0  0  0  0  0  0  0  0
    3.8716    3.8861   -3.2576 H   0  0  0  0  0  0  0  0  0  0  0  0
    3.5999    3.2544   -5.6124 H   0  0  0  0  0  0  0  0  0  0  0  0
    2.5435    4.6959   -7.2300 H   0  0  0  0  0  0  0  0  0  0  0  0
    3.9866    5.5237   -6.6894 H   0  0  0  0  0  0  0  0  0  0  0  0
    2.0577    7.0727   -6.7992 H   0  0  0  0  0  0  0  0  0  0  0  0
    2.6120    6.9485   -5.1424 H   0  0  0  0  0  0  0  0  0  0  0  0
    0.3517    5.5002   -6.3505 H   0  0  0  0  0  0  0  0  0  0  0  0
   -0.1806    4.6879   -4.2130 H   0  0  0  0  0  0  0  0  0  0  0  0
    1.2012    5.5228   -3.5388 H   0  0  0  0  0  0  0  0  0  0  0  0
    1.2073    3.1859   -5.5250 H   0  0  0  0  0  0  0  0  0  0  0  0
    1.7546    3.1428   -3.8558 H   0  0  0  0  0  0  0  0  0  0  0  0
   10.8982    0.6908   -4.2127 H   0  0  0  0  0  0  0  0  0  0  0  0
   13.3048    1.1170   -4.5469 H   0  0  0  0  0  0  0  0  0  0  0  0
   14.3185    3.1995   -3.6036 H   0  0  0  0  0  0  0  0  0  0  0  0
   12.8385    4.7703   -2.3457 H   0  0  0  0  0  0  0  0  0  0  0  0
  1  2  1  0  0  0  0
  1 28  1  0  0  0  0
  1 29  1  0  0  0  0
  2  3  1  0  0  0  0
  2 30  1  0  0  0  0
  2 31  1  0  0  0  0
  3  4  1  0  0  0  0
  3 32  1  0  0  0  0
  3 33  1  0  0  0  0
  4  5  1  0  0  0  0
  4 34  1  0  0  0  0
  4 35  1  0  0  0  0
  5  6  1  0  0  0  0
  6  7  1  0  0  0  0
  6 11  2  0  0  0  0
  7  8  2  0  0  0  0
  7 36  1  0  0  0  0
  8  9  1  0  0  0  0
  8 37  1  0  0  0  0
  9 10  2  0  0  0  0
  9 22  1  0  0  0  0
 10 11  1  0  0  0  0
 10 38  1  0  0  0  0
 11 12  1  0  0  0  0
 12 13  1  0  0  0  0
 12 39  1  0  0  0  0
 12 40  1  0  0  0  0
 13 14  1  0  0  0  0
 13 41  1  0  0  0  0
 14 15  1  0  0  0  0
 14 42  1  0  0  0  0
 14 43  1  0  0  0  0
 15 16  1  0  0  0  0
 15 44  1  0  0  0  0
 15 45  1  0  0  0  0
 16 17  1  0  0  0  0
 16 21  1  0  0  0  0
 16 46  1  0  0  0  0
 17 18  1  0  0  0  0
 17 47  1  0  0  0  0
 17 48  1  0  0  0  0
 18 19  1  0  0  0  0
 18 49  1  0  0  0  0
 18 50  1  0  0  0  0
 19 20  1  0  0  0  0
 19 51  1  0  0  0  0
 20 21  1  0  0  0  0
 20 52  1  0  0  0  0
 20 53  1  0  0  0  0
 21 54  1  0  0  0  0
 21 55  1  0  0  0  0
 22 23  1  0  0  0  0
 22 27  2  0  0  0  0
 23 24  2  0  0  0  0
 23 56  1  0  0  0  0
 24 25  1  0  0  0  0
 24 57  1  0  0  0  0
 25 26  2  0  0  0  0
 25 58  1  0  0  0  0
 26 27  1  0  0  0  0
 26 59  1  0  0  0  0
M  END
$$$$
Target_lig_1132
 OpenBabel04172516583D

 65 68  0  0  0  0  0  0  0  0999 V2000
    2.9661    1.9598   -0.2541 N   0  0  0  0  0  0  0  0  0  0  0  0
    2.4637    1.9007    1.1141 C   0  0  0  0  0  0  0  0  0  0  0  0
    3.0854    0.7463    1.8968 C   0  0  0  0  0  0  0  0  0  0  0  0
    4.5998    0.8860    2.0119 C   0  0  0  0  0  0  0  0  0  0  0  0
    5.1125   -0.1971    2.7918 O   0  0  0  0  0  0  0  0  0  0  0  0
    6.4618   -0.1720    3.0469 C   0  0  0  0  0  0  0  0  0  0  0  0
    7.3445    0.7822    2.5377 C   0  0  0  0  0  0  0  0  0  0  0  0
    8.7084    0.7286    2.8392 C   0  0  0  0  0  0  0  0  0  0  0  0
    9.2370   -0.2790    3.6555 C   0  0  0  0  0  0  0  0  0  0  0  0
    8.3399   -1.2274    4.1690 C   0  0  0  0  0  0  0  0  0  0  0  0
    6.9633   -1.2003    3.8590 C   0  0  0  0  0  0  0  0  0  0  0  0
    6.0749   -2.3210    4.3522 C   0  0  0  0  0  0  0  0  0  0  0  0
    5.5979   -3.2130    3.2846 N   0  0  0  0  0  0  0  0  0  0  0  0
    6.6527   -3.8878    2.5128 C   0  0  0  0  0  0  0  0  0  0  0  0
    7.5259   -4.7608    3.4115 C   0  0  0  0  0  0  0  0  0  0  0  0
    8.6575   -5.5537    2.7294 C   0  0  0  0  0  0  0  0  0  0  0  0
    8.1875   -6.5843    1.6952 C   0  0  0  0  0  0  0  0  0  0  0  0
    7.4273   -7.7418    2.3429 C   0  0  0  0  0  0  0  0  0  0  0  0
    8.1957   -8.3936    3.4090 N   0  0  0  0  0  0  0  0  0  0  0  0
    8.6342   -7.4392    4.4290 C   0  0  0  0  0  0  0  0  0  0  0  0
    9.4546   -6.2996    3.8196 C   0  0  0  0  0  0  0  0  0  0  0  0
   10.6878   -0.3752    3.9090 C   0  0  0  0  0  0  0  0  0  0  0  0
   11.1989   -0.7227    5.1783 C   0  0  0  0  0  0  0  0  0  0  0  0
   12.5762   -0.8422    5.4082 C   0  0  0  0  0  0  0  0  0  0  0  0
   13.4612   -0.6348    4.3584 C   0  0  0  0  0  0  0  0  0  0  0  0
   12.9700   -0.3206    3.0876 C   0  0  0  0  0  0  0  0  0  0  0  0
   11.6062   -0.1666    2.8643 C   0  0  0  0  0  0  0  0  0  0  0  0
   13.9419   -0.2454    1.9669 C   0  0  0  0  0  0  0  0  0  0  0  0
   13.6593    0.1780    0.8570 O   0  0  0  0  0  0  0  0  0  0  0  0
   15.2759   -0.8539    2.2760 C   0  0  0  0  0  0  0  0  0  0  0  0
   15.6300   -0.4428    3.5051 C   0  0  0  0  0  0  0  0  0  0  0  0
   14.8161   -0.7424    4.6063 O   0  0  0  0  0  0  0  0  0  0  0  0
    2.5036    2.7187   -0.7544 H   0  0  0  0  0  0  0  0  0  0  0  0
    2.7172    1.1032   -0.7493 H   0  0  0  0  0  0  0  0  0  0  0  0
    1.3749    1.7862    1.0937 H   0  0  0  0  0  0  0  0  0  0  0  0
    2.6841    2.8503    1.6146 H   0  0  0  0  0  0  0  0  0  0  0  0
    2.8353   -0.2161    1.4329 H   0  0  0  0  0  0  0  0  0  0  0  0
    2.6487    0.7131    2.9030 H   0  0  0  0  0  0  0  0  0  0  0  0
    4.8305    1.8389    2.5035 H   0  0  0  0  0  0  0  0  0  0  0  0
    5.0498    0.8537    1.0132 H   0  0  0  0  0  0  0  0  0  0  0  0
    7.0129    1.5807    1.8818 H   0  0  0  0  0  0  0  0  0  0  0  0
    9.3565    1.4924    2.4133 H   0  0  0  0  0  0  0  0  0  0  0  0
    8.7202   -2.0366    4.7900 H   0  0  0  0  0  0  0  0  0  0  0  0
    5.2063   -1.8843    4.8600 H   0  0  0  0  0  0  0  0  0  0  0  0
    6.5757   -2.8984    5.1388 H   0  0  0  0  0  0  0  0  0  0  0  0
    5.0396   -2.6400    2.6491 H   0  0  0  0  0  0  0  0  0  0  0  0
    7.2562   -3.1676    1.9497 H   0  0  0  0  0  0  0  0  0  0  0  0
    6.1497   -4.5185    1.7713 H   0  0  0  0  0  0  0  0  0  0  0  0
    6.8612   -5.4316    3.9643 H   0  0  0  0  0  0  0  0  0  0  0  0
    8.0151   -4.1319    4.1603 H   0  0  0  0  0  0  0  0  0  0  0  0
    9.3273   -4.8383    2.2320 H   0  0  0  0  0  0  0  0  0  0  0  0
    9.0708   -6.9880    1.1788 H   0  0  0  0  0  0  0  0  0  0  0  0
    7.5753   -6.1128    0.9193 H   0  0  0  0  0  0  0  0  0  0  0  0
    7.1982   -8.4911    1.5741 H   0  0  0  0  0  0  0  0  0  0  0  0
    6.4619   -7.3976    2.7308 H   0  0  0  0  0  0  0  0  0  0  0  0
    9.0195   -8.8308    2.9962 H   0  0  0  0  0  0  0  0  0  0  0  0
    9.2470   -7.9716    5.1712 H   0  0  0  0  0  0  0  0  0  0  0  0
    7.7676   -7.0594    4.9777 H   0  0  0  0  0  0  0  0  0  0  0  0
   10.3767   -6.7054    3.3842 H   0  0  0  0  0  0  0  0  0  0  0  0
    9.7636   -5.6025    4.6079 H   0  0  0  0  0  0  0  0  0  0  0  0
   10.5209   -0.9014    6.0112 H   0  0  0  0  0  0  0  0  0  0  0  0
   12.9460   -1.1039    6.3959 H   0  0  0  0  0  0  0  0  0  0  0  0
   11.2589    0.0699    1.8591 H   0  0  0  0  0  0  0  0  0  0  0  0
   15.1251   -1.9287    2.1389 H   0  0  0  0  0  0  0  0  0  0  0  0
   15.9414    0.5904    3.6720 H   0  0  0  0  0  0  0  0  0  0  0  0
  1  2  1  0  0  0  0
  1 33  1  0  0  0  0
  1 34  1  0  0  0  0
  2  3  1  0  0  0  0
  2 35  1  0  0  0  0
  2 36  1  0  0  0  0
  3  4  1  0  0  0  0
  3 37  1  0  0  0  0
  3 38  1  0  0  0  0
  4  5  1  0  0  0  0
  4 39  1  0  0  0  0
  4 40  1  0  0  0  0
  5  6  1  0  0  0  0
  6  7  1  0  0  0  0
  6 11  2  0  0  0  0
  7  8  2  0  0  0  0
  7 41  1  0  0  0  0
  8  9  1  0  0  0  0
  8 42  1  0  0  0  0
  9 10  2  0  0  0  0
  9 22  1  0  0  0  0
 10 11  1  0  0  0  0
 10 43  1  0  0  0  0
 11 12  1  0  0  0  0
 12 13  1  0  0  0  0
 12 44  1  0  0  0  0
 12 45  1  0  0  0  0
 13 14  1  0  0  0  0
 13 46  1  0  0  0  0
 14 15  1  0  0  0  0
 14 47  1  0  0  0  0
 14 48  1  0  0  0  0
 15 16  1  0  0  0  0
 15 49  1  0  0  0  0
 15 50  1  0  0  0  0
 16 17  1  0  0  0  0
 16 21  1  0  0  0  0
 16 51  1  0  0  0  0
 17 18  1  0  0  0  0
 17 52  1  0  0  0  0
 17 53  1  0  0  0  0
 18 19  1  0  0  0  0
 18 54  1  0  0  0  0
 18 55  1  0  0  0  0
 19 20  1  0  0  0  0
 19 56  1  0  0  0  0
 20 21  1  0  0  0  0
 20 57  1  0  0  0  0
 20 58  1  0  0  0  0
 21 59  1  0  0  0  0
 21 60  1  0  0  0  0
 22 23  1  0  0  0  0
 22 27  2  0  0  0  0
 23 24  2  0  0  0  0
 23 61  1  0  0  0  0
 24 25  1  0  0  0  0
 24 62  1  0  0  0  0
 25 26  2  0  0  0  0
 25 32  1  0  0  0  0
 26 27  1  0  0  0  0
 26 28  1  0  0  0  0
 27 63  1  0  0  0  0
 28 29  2  0  0  0  0
 28 30  1  0  0  0  0
 30 31  2  0  0  0  0
 30 64  1  0  0  0  0
 31 32  1  0  0  0  0
 31 65  1  0  0  0  0
M  END
$$$$
Target_lig_1133
 OpenBabel04172516583D

 65 68  0  0  0  0  0  0  0  0999 V2000
    0.9158   -0.0908    2.0770 N   0  0  0  0  0  0  0  0  0  0  0  0
    2.3656   -0.1475    2.2011 C   0  0  0  0  0  0  0  0  0  0  0  0
    2.9237   -1.3977    1.5241 C   0  0  0  0  0  0  0  0  0  0  0  0
    4.4410   -1.4347    1.6700 C   0  0  0  0  0  0  0  0  0  0  0  0
    4.9605   -2.6198    1.0623 O   0  0  0  0  0  0  0  0  0  0  0  0
    6.3170   -2.8083    1.1801 C   0  0  0  0  0  0  0  0  0  0  0  0
    7.1884   -1.8936    1.7737 C   0  0  0  0  0  0  0  0  0  0  0  0
    8.5678   -2.1223    1.7826 C   0  0  0  0  0  0  0  0  0  0  0  0
    9.1300   -3.2782    1.2222 C   0  0  0  0  0  0  0  0  0  0  0  0
    8.2360   -4.2242    0.6979 C   0  0  0  0  0  0  0  0  0  0  0  0
    6.8479   -3.9813    0.6181 C   0  0  0  0  0  0  0  0  0  0  0  0
    6.0087   -4.9297   -0.2117 C   0  0  0  0  0  0  0  0  0  0  0  0
    5.4930   -4.3202   -1.4461 N   0  0  0  0  0  0  0  0  0  0  0  0
    6.5114   -3.6931   -2.2970 C   0  0  0  0  0  0  0  0  0  0  0  0
    7.5197   -4.6755   -2.9066 C   0  0  0  0  0  0  0  0  0  0  0  0
    8.6006   -3.9678   -3.7577 C   0  0  0  0  0  0  0  0  0  0  0  0
    8.0299   -3.2292   -4.9796 C   0  0  0  0  0  0  0  0  0  0  0  0
    7.5619   -4.1984   -6.0640 C   0  0  0  0  0  0  0  0  0  0  0  0
    8.6571   -5.0652   -6.5036 N   0  0  0  0  0  0  0  0  0  0  0  0
    9.1910   -5.8482   -5.3876 C   0  0  0  0  0  0  0  0  0  0  0  0
    9.6747   -4.9623   -4.2368 C   0  0  0  0  0  0  0  0  0  0  0  0
   10.5986   -3.4343    1.1335 C   0  0  0  0  0  0  0  0  0  0  0  0
   11.2214   -4.2379    0.1812 C   0  0  0  0  0  0  0  0  0  0  0  0
   12.6097   -4.2919    0.1381 C   0  0  0  0  0  0  0  0  0  0  0  0
   13.3588   -3.5392    1.0447 C   0  0  0  0  0  0  0  0  0  0  0  0
   12.6603   -2.7306    1.9624 C   0  0  0  0  0  0  0  0  0  0  0  0
   11.3193   -2.6847    2.0058 N   0  0  0  0  0  0  0  0  0  0  0  0
   13.3995   -1.9516    2.8457 C   0  0  0  0  0  0  0  0  0  0  0  0
   14.7943   -1.9844    2.8581 C   0  0  0  0  0  0  0  0  0  0  0  0
   15.4788   -2.8053    1.9676 C   0  0  0  0  0  0  0  0  0  0  0  0
   14.7626   -3.5741    1.0532 C   0  0  0  0  0  0  0  0  0  0  0  0
    0.5621    0.7243    2.5774 H   0  0  0  0  0  0  0  0  0  0  0  0
    0.4985   -0.9046    2.5282 H   0  0  0  0  0  0  0  0  0  0  0  0
    2.6376   -0.1403    3.2629 H   0  0  0  0  0  0  0  0  0  0  0  0
    2.7970    0.7507    1.7452 H   0  0  0  0  0  0  0  0  0  0  0  0
    2.6561   -1.4173    0.4601 H   0  0  0  0  0  0  0  0  0  0  0  0
    2.4925   -2.3051    1.9651 H   0  0  0  0  0  0  0  0  0  0  0  0
    4.6906   -1.4297    2.7383 H   0  0  0  0  0  0  0  0  0  0  0  0
    4.8657   -0.5506    1.1787 H   0  0  0  0  0  0  0  0  0  0  0  0
    6.8443   -0.9591    2.2035 H   0  0  0  0  0  0  0  0  0  0  0  0
    9.2149   -1.3590    2.2119 H   0  0  0  0  0  0  0  0  0  0  0  0
    8.6160   -5.1579    0.2891 H   0  0  0  0  0  0  0  0  0  0  0  0
    5.1641   -5.2855    0.3902 H   0  0  0  0  0  0  0  0  0  0  0  0
    6.5740   -5.8344   -0.4662 H   0  0  0  0  0  0  0  0  0  0  0  0
    4.8459   -3.5860   -1.1463 H   0  0  0  0  0  0  0  0  0  0  0  0
    7.0371   -2.8901   -1.7664 H   0  0  0  0  0  0  0  0  0  0  0  0
    5.9615   -3.1969   -3.1031 H   0  0  0  0  0  0  0  0  0  0  0  0
    6.9809   -5.4234   -3.5002 H   0  0  0  0  0  0  0  0  0  0  0  0
    8.0319   -5.2259   -2.1109 H   0  0  0  0  0  0  0  0  0  0  0  0
    9.0955   -3.2311   -3.1104 H   0  0  0  0  0  0  0  0  0  0  0  0
    8.8116   -2.5792   -5.3944 H   0  0  0  0  0  0  0  0  0  0  0  0
    7.2105   -2.5610   -4.6990 H   0  0  0  0  0  0  0  0  0  0  0  0
    7.1962   -3.6282   -6.9250 H   0  0  0  0  0  0  0  0  0  0  0  0
    6.7179   -4.8043   -5.7153 H   0  0  0  0  0  0  0  0  0  0  0  0
    9.4023   -4.4816   -6.8846 H   0  0  0  0  0  0  0  0  0  0  0  0
   10.0308   -6.4481   -5.7555 H   0  0  0  0  0  0  0  0  0  0  0  0
    8.4349   -6.5605   -5.0371 H   0  0  0  0  0  0  0  0  0  0  0  0
   10.5520   -4.3946   -4.5753 H   0  0  0  0  0  0  0  0  0  0  0  0
   10.0164   -5.5904   -3.4056 H   0  0  0  0  0  0  0  0  0  0  0  0
   10.6507   -4.8044   -0.5459 H   0  0  0  0  0  0  0  0  0  0  0  0
   13.0965   -4.9102   -0.6118 H   0  0  0  0  0  0  0  0  0  0  0  0
   12.8694   -1.3037    3.5398 H   0  0  0  0  0  0  0  0  0  0  0  0
   15.3437   -1.3732    3.5697 H   0  0  0  0  0  0  0  0  0  0  0  0
   16.5648   -2.8496    1.9870 H   0  0  0  0  0  0  0  0  0  0  0  0
   15.3037   -4.2055    0.3516 H   0  0  0  0  0  0  0  0  0  0  0  0
  1  2  1  0  0  0  0
  1 32  1  0  0  0  0
  1 33  1  0  0  0  0
  2  3  1  0  0  0  0
  2 34  1  0  0  0  0
  2 35  1  0  0  0  0
  3  4  1  0  0  0  0
  3 36  1  0  0  0  0
  3 37  1  0  0  0  0
  4  5  1  0  0  0  0
  4 38  1  0  0  0  0
  4 39  1  0  0  0  0
  5  6  1  0  0  0  0
  6  7  1  0  0  0  0
  6 11  2  0  0  0  0
  7  8  2  0  0  0  0
  7 40  1  0  0  0  0
  8  9  1  0  0  0  0
  8 41  1  0  0  0  0
  9 10  2  0  0  0  0
  9 22  1  0  0  0  0
 10 11  1  0  0  0  0
 10 42  1  0  0  0  0
 11 12  1  0  0  0  0
 12 13  1  0  0  0  0
 12 43  1  0  0  0  0
 12 44  1  0  0  0  0
 13 14  1  0  0  0  0
 13 45  1  0  0  0  0
 14 15  1  0  0  0  0
 14 46  1  0  0  0  0
 14 47  1  0  0  0  0
 15 16  1  0  0  0  0
 15 48  1  0  0  0  0
 15 49  1  0  0  0  0
 16 17  1  0  0  0  0
 16 21  1  0  0  0  0
 16 50  1  0  0  0  0
 17 18  1  0  0  0  0
 17 51  1  0  0  0  0
 17 52  1  0  0  0  0
 18 19  1  0  0  0  0
 18 53  1  0  0  0  0
 18 54  1  0  0  0  0
 19 20  1  0  0  0  0
 19 55  1  0  0  0  0
 20 21  1  0  0  0  0
 20 56  1  0  0  0  0
 20 57  1  0  0  0  0
 21 58  1  0  0  0  0
 21 59  1  0  0  0  0
 22 23  1  0  0  0  0
 22 27  2  0  0  0  0
 23 24  2  0  0  0  0
 23 60  1  0  0  0  0
 24 25  1  0  0  0  0
 24 61  1  0  0  0  0
 25 26  1  0  0  0  0
 25 31  2  0  0  0  0
 26 27  1  0  0  0  0
 26 28  2  0  0  0  0
 28 29  1  0  0  0  0
 28 62  1  0  0  0  0
 29 30  2  0  0  0  0
 29 63  1  0  0  0  0
 30 31  1  0  0  0  0
 30 64  1  0  0  0  0
 31 65  1  0  0  0  0
M  END
$$$$
Target_lig_1134
 OpenBabel04172516583D

 60 62  0  0  0  0  0  0  0  0999 V2000
    2.9208    0.8934   -1.8785 N   0  0  0  0  0  0  0  0  0  0  0  0
    2.4028    1.9837   -1.0580 C   0  0  0  0  0  0  0  0  0  0  0  0
    2.9579    1.9348    0.3654 C   0  0  0  0  0  0  0  0  0  0  0  0
    4.4767    2.0584    0.3777 C   0  0  0  0  0  0  0  0  0  0  0  0
    4.9628    2.0273    1.7238 O   0  0  0  0  0  0  0  0  0  0  0  0
    6.3186    2.2186    1.8605 C   0  0  0  0  0  0  0  0  0  0  0  0
    7.2039    2.3305    0.7844 C   0  0  0  0  0  0  0  0  0  0  0  0
    8.5668    2.5572    0.9920 C   0  0  0  0  0  0  0  0  0  0  0  0
    9.1021    2.6628    2.2805 C   0  0  0  0  0  0  0  0  0  0  0  0
    8.2064    2.5182    3.3541 C   0  0  0  0  0  0  0  0  0  0  0  0
    6.8245    2.2950    3.1661 C   0  0  0  0  0  0  0  0  0  0  0  0
    5.9460    2.1152    4.3851 C   0  0  0  0  0  0  0  0  0  0  0  0
    5.3838    0.7681    4.5337 N   0  0  0  0  0  0  0  0  0  0  0  0
    6.3721   -0.3130    4.6042 C   0  0  0  0  0  0  0  0  0  0  0  0
    7.3160   -0.1979    5.8059 C   0  0  0  0  0  0  0  0  0  0  0  0
    8.3564   -1.3347    5.8996 C   0  0  0  0  0  0  0  0  0  0  0  0
    7.7377   -2.7277    6.0913 C   0  0  0  0  0  0  0  0  0  0  0  0
    7.1217   -2.8924    7.4808 C   0  0  0  0  0  0  0  0  0  0  0  0
    8.1054   -2.6426    8.5377 N   0  0  0  0  0  0  0  0  0  0  0  0
    8.6751   -1.2976    8.4274 C   0  0  0  0  0  0  0  0  0  0  0  0
    9.3298   -1.0660    7.0633 C   0  0  0  0  0  0  0  0  0  0  0  0
   10.5446    2.9104    2.4981 C   0  0  0  0  0  0  0  0  0  0  0  0
   10.9983    3.6878    3.5805 C   0  0  0  0  0  0  0  0  0  0  0  0
   12.3588    3.9239    3.7921 C   0  0  0  0  0  0  0  0  0  0  0  0
   13.2999    3.3993    2.9110 C   0  0  0  0  0  0  0  0  0  0  0  0
   12.8813    2.6347    1.8279 C   0  0  0  0  0  0  0  0  0  0  0  0
   11.5218    2.3870    1.6275 C   0  0  0  0  0  0  0  0  0  0  0  0
    2.4818    0.9189   -2.7985 H   0  0  0  0  0  0  0  0  0  0  0  0
    2.6620   -0.0025   -1.4651 H   0  0  0  0  0  0  0  0  0  0  0  0
    1.3102    1.9258   -1.0286 H   0  0  0  0  0  0  0  0  0  0  0  0
    2.6689    2.9371   -1.5289 H   0  0  0  0  0  0  0  0  0  0  0  0
    2.6552    1.0082    0.8681 H   0  0  0  0  0  0  0  0  0  0  0  0
    2.5234    2.7517    0.9546 H   0  0  0  0  0  0  0  0  0  0  0  0
    4.7512    3.0106   -0.0936 H   0  0  0  0  0  0  0  0  0  0  0  0
    4.9130    1.2192   -0.1760 H   0  0  0  0  0  0  0  0  0  0  0  0
    6.8744    2.2481   -0.2459 H   0  0  0  0  0  0  0  0  0  0  0  0
    9.2020    2.6635    0.1155 H   0  0  0  0  0  0  0  0  0  0  0  0
    8.5881    2.5599    4.3730 H   0  0  0  0  0  0  0  0  0  0  0  0
    5.1191    2.8343    4.3286 H   0  0  0  0  0  0  0  0  0  0  0  0
    6.4837    2.3956    5.2988 H   0  0  0  0  0  0  0  0  0  0  0  0
    4.7895    0.6086    3.7174 H   0  0  0  0  0  0  0  0  0  0  0  0
    6.9428   -0.3867    3.6716 H   0  0  0  0  0  0  0  0  0  0  0  0
    5.8000   -1.2429    4.6852 H   0  0  0  0  0  0  0  0  0  0  0  0
    6.7168   -0.1385    6.7214 H   0  0  0  0  0  0  0  0  0  0  0  0
    7.8752    0.7416    5.7455 H   0  0  0  0  0  0  0  0  0  0  0  0
    8.9337   -1.3376    4.9655 H   0  0  0  0  0  0  0  0  0  0  0  0
    8.5247   -3.4832    5.9605 H   0  0  0  0  0  0  0  0  0  0  0  0
    6.9900   -2.9424    5.3218 H   0  0  0  0  0  0  0  0  0  0  0  0
    6.7439   -3.9149    7.5885 H   0  0  0  0  0  0  0  0  0  0  0  0
    6.2568   -2.2308    7.6064 H   0  0  0  0  0  0  0  0  0  0  0  0
    8.8596   -3.3238    8.4483 H   0  0  0  0  0  0  0  0  0  0  0  0
    9.4267   -1.1693    9.2139 H   0  0  0  0  0  0  0  0  0  0  0  0
    7.9003   -0.5472    8.6228 H   0  0  0  0  0  0  0  0  0  0  0  0
   10.1970   -1.7320    6.9646 H   0  0  0  0  0  0  0  0  0  0  0  0
    9.7187   -0.0419    7.0088 H   0  0  0  0  0  0  0  0  0  0  0  0
   10.2884    4.1363    4.2717 H   0  0  0  0  0  0  0  0  0  0  0  0
   12.6794    4.5251    4.6381 H   0  0  0  0  0  0  0  0  0  0  0  0
   14.3566    3.5885    3.0693 H   0  0  0  0  0  0  0  0  0  0  0  0
   13.6118    2.2275    1.1338 H   0  0  0  0  0  0  0  0  0  0  0  0
   11.2318    1.7698    0.7807 H   0  0  0  0  0  0  0  0  0  0  0  0
  1  2  1  0  0  0  0
  1 28  1  0  0  0  0
  1 29  1  0  0  0  0
  2  3  1  0  0  0  0
  2 30  1  0  0  0  0
  2 31  1  0  0  0  0
  3  4  1  0  0  0  0
  3 32  1  0  0  0  0
  3 33  1  0  0  0  0
  4  5  1  0  0  0  0
  4 34  1  0  0  0  0
  4 35  1  0  0  0  0
  5  6  1  0  0  0  0
  6  7  1  0  0  0  0
  6 11  2  0  0  0  0
  7  8  2  0  0  0  0
  7 36  1  0  0  0  0
  8  9  1  0  0  0  0
  8 37  1  0  0  0  0
  9 10  2  0  0  0  0
  9 22  1  0  0  0  0
 10 11  1  0  0  0  0
 10 38  1  0  0  0  0
 11 12  1  0  0  0  0
 12 13  1  0  0  0  0
 12 39  1  0  0  0  0
 12 40  1  0  0  0  0
 13 14  1  0  0  0  0
 13 41  1  0  0  0  0
 14 15  1  0  0  0  0
 14 42  1  0  0  0  0
 14 43  1  0  0  0  0
 15 16  1  0  0  0  0
 15 44  1  0  0  0  0
 15 45  1  0  0  0  0
 16 17  1  0  0  0  0
 16 21  1  0  0  0  0
 16 46  1  0  0  0  0
 17 18  1  0  0  0  0
 17 47  1  0  0  0  0
 17 48  1  0  0  0  0
 18 19  1  0  0  0  0
 18 49  1  0  0  0  0
 18 50  1  0  0  0  0
 19 20  1  0  0  0  0
 19 51  1  0  0  0  0
 20 21  1  0  0  0  0
 20 52  1  0  0  0  0
 20 53  1  0  0  0  0
 21 54  1  0  0  0  0
 21 55  1  0  0  0  0
 22 23  1  0  0  0  0
 22 27  2  0  0  0  0
 23 24  2  0  0  0  0
 23 56  1  0  0  0  0
 24 25  1  0  0  0  0
 24 57  1  0  0  0  0
 25 26  2  0  0  0  0
 25 58  1  0  0  0  0
 26 27  1  0  0  0  0
 26 59  1  0  0  0  0
 27 60  1  0  0  0  0
M  END
$$$$
Target_lig_1135
 OpenBabel04172516583D

 70 75  0  0  0  0  0  0  0  0999 V2000
    8.4640   -4.5500   -2.1200 N   0  0  0  0  0  0  0  0  0  0  0  0
    7.8068   -3.7717   -3.1862 C   0  0  0  0  0  0  0  0  0  0  0  0
    7.2220   -2.4371   -2.6717 C   0  0  0  0  0  0  0  0  0  0  0  0
    6.2589   -2.5831   -1.5574 N   0  0  0  0  0  0  0  0  0  0  0  0
    6.9207   -3.3728   -0.4904 C   0  0  0  0  0  0  0  0  0  0  0  0
    7.5506   -4.7045   -0.9731 C   0  0  0  0  0  0  0  0  0  0  0  0
    4.9955   -3.2365   -1.9539 C   0  0  0  0  0  0  0  0  0  0  0  0
    4.2132   -2.4814   -3.0369 C   0  0  0  0  0  0  0  0  0  0  0  0
    2.9261   -3.2347   -3.3855 C   0  0  0  0  0  0  0  0  0  0  0  0
    2.1345   -2.6280   -4.4581 N   0  0  0  0  0  0  0  0  0  0  0  0
    2.7905   -2.5556   -5.7703 C   0  0  0  0  0  0  0  0  0  0  0  0
    3.3965   -3.8427   -6.3010 C   0  0  0  0  0  0  0  0  0  0  0  0
    4.7452   -3.7501   -6.7948 C   0  0  0  0  0  0  0  0  0  0  0  0
    5.5059   -4.8717   -7.1545 C   0  0  0  0  0  0  0  0  0  0  0  0
    4.8687   -6.1068   -7.0174 C   0  0  0  0  0  0  0  0  0  0  0  0
    3.5341   -6.2145   -6.5856 C   0  0  0  0  0  0  0  0  0  0  0  0
    2.7399   -5.0923   -6.2915 C   0  0  0  0  0  0  0  0  0  0  0  0
    1.3659   -5.1771   -6.0109 O   0  0  0  0  0  0  0  0  0  0  0  0
    0.8533   -6.5258   -6.1193 C   0  0  0  0  0  0  0  0  0  0  0  0
   -0.6495   -6.7435   -6.1218 C   0  0  0  0  0  0  0  0  0  0  0  0
   -1.7940   -5.9653   -6.1749 C   0  0  0  0  0  0  0  0  0  0  0  0
   -3.0264   -6.7429   -6.3139 C   0  0  0  0  0  0  0  0  0  0  0  0
   -2.7558   -8.1126   -6.3211 C   0  0  0  0  0  0  0  0  0  0  0  0
   -1.0867   -8.4224   -6.1354 S   0  0  0  0  0  0  0  0  0  0  0  0
   -3.7647   -9.0923   -6.4701 C   0  0  0  0  0  0  0  0  0  0  0  0
   -5.0939   -8.6843   -6.6096 C   0  0  0  0  0  0  0  0  0  0  0  0
   -5.4024   -7.3372   -6.5932 C   0  0  0  0  0  0  0  0  0  0  0  0
   -4.3915   -6.3660   -6.4427 C   0  0  0  0  0  0  0  0  0  0  0  0
    6.9331   -4.7663   -7.5739 C   0  0  0  0  0  0  0  0  0  0  0  0
    7.6298   -3.7466   -8.2101 C   0  0  0  0  0  0  0  0  0  0  0  0
    9.0452   -4.0133   -8.3853 C   0  0  0  0  0  0  0  0  0  0  0  0
    9.3798   -5.2660   -7.8759 C   0  0  0  0  0  0  0  0  0  0  0  0
    8.0125   -6.0609   -7.2203 S   0  0  0  0  0  0  0  0  0  0  0  0
   10.7008   -5.7634   -7.9159 C   0  0  0  0  0  0  0  0  0  0  0  0
   11.7103   -4.9790   -8.4716 C   0  0  0  0  0  0  0  0  0  0  0  0
   11.4089   -3.7261   -8.9874 C   0  0  0  0  0  0  0  0  0  0  0  0
   10.0932   -3.2361   -8.9601 C   0  0  0  0  0  0  0  0  0  0  0  0
    9.2706   -4.0134   -1.8025 H   0  0  0  0  0  0  0  0  0  0  0  0
    7.0261   -4.3786   -3.6589 H   0  0  0  0  0  0  0  0  0  0  0  0
    8.5460   -3.5593   -3.9671 H   0  0  0  0  0  0  0  0  0  0  0  0
    6.7914   -1.8691   -3.5023 H   0  0  0  0  0  0  0  0  0  0  0  0
    8.0506   -1.8087   -2.3161 H   0  0  0  0  0  0  0  0  0  0  0  0
    6.2180   -3.5716    0.3282 H   0  0  0  0  0  0  0  0  0  0  0  0
    7.7128   -2.7507   -0.0520 H   0  0  0  0  0  0  0  0  0  0  0  0
    6.7655   -5.4230   -1.2370 H   0  0  0  0  0  0  0  0  0  0  0  0
    8.1090   -5.1538   -0.1454 H   0  0  0  0  0  0  0  0  0  0  0  0
    4.3522   -3.3045   -1.0663 H   0  0  0  0  0  0  0  0  0  0  0  0
    5.1636   -4.2647   -2.2939 H   0  0  0  0  0  0  0  0  0  0  0  0
    4.8275   -2.3946   -3.9357 H   0  0  0  0  0  0  0  0  0  0  0  0
    3.9774   -1.4671   -2.6938 H   0  0  0  0  0  0  0  0  0  0  0  0
    2.2891   -3.2743   -2.4932 H   0  0  0  0  0  0  0  0  0  0  0  0
    3.1526   -4.2802   -3.6216 H   0  0  0  0  0  0  0  0  0  0  0  0
    1.8652   -1.6851   -4.1819 H   0  0  0  0  0  0  0  0  0  0  0  0
    3.5772   -1.7912   -5.6967 H   0  0  0  0  0  0  0  0  0  0  0  0
    2.0835   -2.1703   -6.5120 H   0  0  0  0  0  0  0  0  0  0  0  0
    5.2122   -2.7673   -6.8550 H   0  0  0  0  0  0  0  0  0  0  0  0
    5.3908   -7.0332   -7.2485 H   0  0  0  0  0  0  0  0  0  0  0  0
    3.1640   -7.2303   -6.4852 H   0  0  0  0  0  0  0  0  0  0  0  0
    1.2705   -7.1080   -5.2865 H   0  0  0  0  0  0  0  0  0  0  0  0
    1.1744   -6.9322   -7.0849 H   0  0  0  0  0  0  0  0  0  0  0  0
   -1.7811   -4.8817   -6.1619 H   0  0  0  0  0  0  0  0  0  0  0  0
   -3.5117  -10.1502   -6.4841 H   0  0  0  0  0  0  0  0  0  0  0  0
   -5.8731   -9.4316   -6.7334 H   0  0  0  0  0  0  0  0  0  0  0  0
   -6.4418   -7.0332   -6.7034 H   0  0  0  0  0  0  0  0  0  0  0  0
   -4.6724   -5.3164   -6.4415 H   0  0  0  0  0  0  0  0  0  0  0  0
    7.1643   -2.8263   -8.5442 H   0  0  0  0  0  0  0  0  0  0  0  0
   10.9321   -6.7435   -7.5088 H   0  0  0  0  0  0  0  0  0  0  0  0
   12.7311   -5.3508   -8.4965 H   0  0  0  0  0  0  0  0  0  0  0  0
   12.2063   -3.1165   -9.4181 H   0  0  0  0  0  0  0  0  0  0  0  0
    9.8864   -2.2536   -9.3661 H   0  0  0  0  0  0  0  0  0  0  0  0
  1  2  1  0  0  0  0
  1  6  1  0  0  0  0
  1 38  1  0  0  0  0
  2  3  1  0  0  0  0
  2 39  1  0  0  0  0
  2 40  1  0  0  0  0
  3  4  1  0  0  0  0
  3 41  1  0  0  0  0
  3 42  1  0  0  0  0
  4  5  1  0  0  0  0
  4  7  1  0  0  0  0
  5  6  1  0  0  0  0
  5 43  1  0  0  0  0
  5 44  1  0  0  0  0
  6 45  1  0  0  0  0
  6 46  1  0  0  0  0
  7  8  1  0  0  0  0
  7 47  1  0  0  0  0
  7 48  1  0  0  0  0
  8  9  1  0  0  0  0
  8 49  1  0  0  0  0
  8 50  1  0  0  0  0
  9 10  1  0  0  0  0
  9 51  1  0  0  0  0
  9 52  1  0  0  0  0
 10 11  1  0  0  0  0
 10 53  1  0  0  0  0
 11 12  1  0  0  0  0
 11 54  1  0  0  0  0
 11 55  1  0  0  0  0
 12 13  1  0  0  0  0
 12 17  2  0  0  0  0
 13 14  2  0  0  0  0
 13 56  1  0  0  0  0
 14 15  1  0  0  0  0
 14 29  1  0  0  0  0
 15 16  2  0  0  0  0
 15 57  1  0  0  0  0
 16 17  1  0  0  0  0
 16 58  1  0  0  0  0
 17 18  1  0  0  0  0
 18 19  1  0  0  0  0
 19 20  1  0  0  0  0
 19 59  1  0  0  0  0
 19 60  1  0  0  0  0
 20 21  2  0  0  0  0
 20 24  1  0  0  0  0
 21 22  1  0  0  0  0
 21 61  1  0  0  0  0
 22 23  1  0  0  0  0
 22 28  2  0  0  0  0
 23 24  1  0  0  0  0
 23 25  2  0  0  0  0
 25 26  1  0  0  0  0
 25 62  1  0  0  0  0
 26 27  2  0  0  0  0
 26 63  1  0  0  0  0
 27 28  1  0  0  0  0
 27 64  1  0  0  0  0
 28 65  1  0  0  0  0
 29 30  2  0  0  0  0
 29 33  1  0  0  0  0
 30 31  1  0  0  0  0
 30 66  1  0  0  0  0
 31 32  1  0  0  0  0
 31 37  2  0  0  0  0
 32 33  1  0  0  0  0
 32 34  2  0  0  0  0
 34 35  1  0  0  0  0
 34 67  1  0  0  0  0
 35 36  2  0  0  0  0
 35 68  1  0  0  0  0
 36 37  1  0  0  0  0
 36 69  1  0  0  0  0
 37 70  1  0  0  0  0
M  END
$$$$
Target_lig_1136
 OpenBabel04172516583D

 74 77  0  0  0  0  0  0  0  0999 V2000
   -0.1798   -0.1786   -1.3001 C   0  0  0  0  0  0  0  0  0  0  0  0
   -0.6106   -1.4766   -0.7797 N   0  0  0  0  0  0  0  0  0  0  0  0
    0.4974   -2.4445   -0.6966 C   0  0  0  0  0  0  0  0  0  0  0  0
    1.1494   -2.7849   -2.0513 C   0  0  0  0  0  0  0  0  0  0  0  0
    2.2831   -3.8202   -1.9443 C   0  0  0  0  0  0  0  0  0  0  0  0
    1.7899   -5.1512   -1.3904 C   0  0  0  0  0  0  0  0  0  0  0  0
    2.8483   -6.1056   -1.2759 O   0  0  0  0  0  0  0  0  0  0  0  0
    2.4371   -7.3613   -0.8698 C   0  0  0  0  0  0  0  0  0  0  0  0
    1.1269   -7.6614   -0.4695 C   0  0  0  0  0  0  0  0  0  0  0  0
    0.7199   -8.9659   -0.1737 C   0  0  0  0  0  0  0  0  0  0  0  0
    1.6114  -10.0301   -0.2903 C   0  0  0  0  0  0  0  0  0  0  0  0
    2.9468   -9.7164   -0.6235 C   0  0  0  0  0  0  0  0  0  0  0  0
    3.3886   -8.3910   -0.8782 C   0  0  0  0  0  0  0  0  0  0  0  0
    4.8507   -8.1483   -1.2075 C   0  0  0  0  0  0  0  0  0  0  0  0
    5.5751   -7.2075   -0.3355 N   0  0  0  0  0  0  0  0  0  0  0  0
    5.6678   -7.6108    1.0722 C   0  0  0  0  0  0  0  0  0  0  0  0
    6.4716   -8.9039    1.2970 C   0  0  0  0  0  0  0  0  0  0  0  0
    6.4830   -9.3537    2.7690 C   0  0  0  0  0  0  0  0  0  0  0  0
    5.1355   -9.4080    3.3149 N   0  0  0  0  0  0  0  0  0  0  0  0
    4.2409  -10.4088    2.7187 C   0  0  0  0  0  0  0  0  0  0  0  0
    2.7843  -10.1187    3.1503 C   0  0  0  0  0  0  0  0  0  0  0  0
    2.6006  -10.0730    4.6143 N   0  0  0  0  0  0  0  0  0  0  0  0
    3.6015   -9.1564    5.1949 C   0  0  0  0  0  0  0  0  0  0  0  0
    5.0520   -9.4868    4.7734 C   0  0  0  0  0  0  0  0  0  0  0  0
    1.1292  -11.4209   -0.0993 C   0  0  0  0  0  0  0  0  0  0  0  0
   -0.1404  -11.9470   -0.2934 C   0  0  0  0  0  0  0  0  0  0  0  0
   -0.2273  -13.3692   -0.0691 C   0  0  0  0  0  0  0  0  0  0  0  0
    1.0016  -13.8801    0.3432 C   0  0  0  0  0  0  0  0  0  0  0  0
    2.1949  -12.6552    0.4279 S   0  0  0  0  0  0  0  0  0  0  0  0
    1.1807  -15.2478    0.6231 C   0  0  0  0  0  0  0  0  0  0  0  0
    0.1094  -16.1239    0.4561 C   0  0  0  0  0  0  0  0  0  0  0  0
   -1.1238  -15.6465    0.0381 C   0  0  0  0  0  0  0  0  0  0  0  0
   -1.3099  -14.2803   -0.2164 C   0  0  0  0  0  0  0  0  0  0  0  0
   -1.2123   -1.2954    0.5471 C   0  0  0  0  0  0  0  0  0  0  0  0
    0.1256   -0.2573   -2.3475 H   0  0  0  0  0  0  0  0  0  0  0  0
    0.6482    0.2433   -0.7201 H   0  0  0  0  0  0  0  0  0  0  0  0
   -1.0100    0.5367   -1.2862 H   0  0  0  0  0  0  0  0  0  0  0  0
    0.0746   -3.3666   -0.2800 H   0  0  0  0  0  0  0  0  0  0  0  0
    1.2680   -2.0983    0.0029 H   0  0  0  0  0  0  0  0  0  0  0  0
    1.5762   -1.8830   -2.5023 H   0  0  0  0  0  0  0  0  0  0  0  0
    0.3818   -3.1565   -2.7426 H   0  0  0  0  0  0  0  0  0  0  0  0
    3.0959   -3.4325   -1.3195 H   0  0  0  0  0  0  0  0  0  0  0  0
    2.7191   -3.9811   -2.9386 H   0  0  0  0  0  0  0  0  0  0  0  0
    1.0109   -5.5303   -2.0644 H   0  0  0  0  0  0  0  0  0  0  0  0
    1.3881   -4.9859   -0.3877 H   0  0  0  0  0  0  0  0  0  0  0  0
    0.3547   -6.8891   -0.3840 H   0  0  0  0  0  0  0  0  0  0  0  0
   -0.3068   -9.1230    0.1424 H   0  0  0  0  0  0  0  0  0  0  0  0
    3.6789  -10.5183   -0.7009 H   0  0  0  0  0  0  0  0  0  0  0  0
    4.9060   -7.7613   -2.2316 H   0  0  0  0  0  0  0  0  0  0  0  0
    5.3987   -9.0971   -1.2456 H   0  0  0  0  0  0  0  0  0  0  0  0
    5.0803   -6.3138   -0.3844 H   0  0  0  0  0  0  0  0  0  0  0  0
    4.6611   -7.6712    1.4991 H   0  0  0  0  0  0  0  0  0  0  0  0
    6.1723   -6.8016    1.6177 H   0  0  0  0  0  0  0  0  0  0  0  0
    7.5050   -8.7528    0.9622 H   0  0  0  0  0  0  0  0  0  0  0  0
    6.0726   -9.7201    0.6887 H   0  0  0  0  0  0  0  0  0  0  0  0
    7.0745   -8.6186    3.3311 H   0  0  0  0  0  0  0  0  0  0  0  0
    6.9980  -10.3169    2.8645 H   0  0  0  0  0  0  0  0  0  0  0  0
    4.5346  -11.4257    3.0103 H   0  0  0  0  0  0  0  0  0  0  0  0
    4.2798  -10.3731    1.6308 H   0  0  0  0  0  0  0  0  0  0  0  0
    2.1187  -10.8890    2.7563 H   0  0  0  0  0  0  0  0  0  0  0  0
    2.4580   -9.1666    2.7119 H   0  0  0  0  0  0  0  0  0  0  0  0
    2.7810  -11.0082    4.9721 H   0  0  0  0  0  0  0  0  0  0  0  0
    3.5161   -9.1860    6.2830 H   0  0  0  0  0  0  0  0  0  0  0  0
    3.3613   -8.1280    4.8860 H   0  0  0  0  0  0  0  0  0  0  0  0
    5.3361  -10.4848    5.1339 H   0  0  0  0  0  0  0  0  0  0  0  0
    5.7243   -8.7611    5.2432 H   0  0  0  0  0  0  0  0  0  0  0  0
   -0.9851  -11.3545   -0.6284 H   0  0  0  0  0  0  0  0  0  0  0  0
    2.1520  -15.6199    0.9448 H   0  0  0  0  0  0  0  0  0  0  0  0
    0.2505  -17.1837    0.6429 H   0  0  0  0  0  0  0  0  0  0  0  0
   -1.9523  -16.3400   -0.0996 H   0  0  0  0  0  0  0  0  0  0  0  0
   -2.2817  -13.9284   -0.5447 H   0  0  0  0  0  0  0  0  0  0  0  0
   -2.0673   -0.6110    0.4958 H   0  0  0  0  0  0  0  0  0  0  0  0
   -0.4960   -0.8943    1.2746 H   0  0  0  0  0  0  0  0  0  0  0  0
   -1.5993   -2.2454    0.9334 H   0  0  0  0  0  0  0  0  0  0  0  0
  1  2  1  0  0  0  0
  1 35  1  0  0  0  0
  1 36  1  0  0  0  0
  1 37  1  0  0  0  0
  2  3  1  0  0  0  0
  2 34  1  0  0  0  0
  3  4  1  0  0  0  0
  3 38  1  0  0  0  0
  3 39  1  0  0  0  0
  4  5  1  0  0  0  0
  4 40  1  0  0  0  0
  4 41  1  0  0  0  0
  5  6  1  0  0  0  0
  5 42  1  0  0  0  0
  5 43  1  0  0  0  0
  6  7  1  0  0  0  0
  6 44  1  0  0  0  0
  6 45  1  0  0  0  0
  7  8  1  0  0  0  0
  8  9  1  0  0  0  0
  8 13  2  0  0  0  0
  9 10  2  0  0  0  0
  9 46  1  0  0  0  0
 10 11  1  0  0  0  0
 10 47  1  0  0  0  0
 11 12  2  0  0  0  0
 11 25  1  0  0  0  0
 12 13  1  0  0  0  0
 12 48  1  0  0  0  0
 13 14  1  0  0  0  0
 14 15  1  0  0  0  0
 14 49  1  0  0  0  0
 14 50  1  0  0  0  0
 15 16  1  0  0  0  0
 15 51  1  0  0  0  0
 16 17  1  0  0  0  0
 16 52  1  0  0  0  0
 16 53  1  0  0  0  0
 17 18  1  0  0  0  0
 17 54  1  0  0  0  0
 17 55  1  0  0  0  0
 18 19  1  0  0  0  0
 18 56  1  0  0  0  0
 18 57  1  0  0  0  0
 19 20  1  0  0  0  0
 19 24  1  0  0  0  0
 20 21  1  0  0  0  0
 20 58  1  0  0  0  0
 20 59  1  0  0  0  0
 21 22  1  0  0  0  0
 21 60  1  0  0  0  0
 21 61  1  0  0  0  0
 22 23  1  0  0  0  0
 22 62  1  0  0  0  0
 23 24  1  0  0  0  0
 23 63  1  0  0  0  0
 23 64  1  0  0  0  0
 24 65  1  0  0  0  0
 24 66  1  0  0  0  0
 25 26  2  0  0  0  0
 25 29  1  0  0  0  0
 26 27  1  0  0  0  0
 26 67  1  0  0  0  0
 27 28  1  0  0  0  0
 27 33  2  0  0  0  0
 28 29  1  0  0  0  0
 28 30  2  0  0  0  0
 30 31  1  0  0  0  0
 30 68  1  0  0  0  0
 31 32  2  0  0  0  0
 31 69  1  0  0  0  0
 32 33  1  0  0  0  0
 32 70  1  0  0  0  0
 33 71  1  0  0  0  0
 34 72  1  0  0  0  0
 34 73  1  0  0  0  0
 34 74  1  0  0  0  0
M  END
$$$$
Target_lig_1141
 OpenBabel04172516583D

 53 55  0  0  1  0  0  0  0  0999 V2000
    3.2878   -0.5267    1.0743 C   0  0  0  0  0  0  0  0  0  0  0  0
    4.2257   -1.6474    1.1672 N   0  0  0  0  0  0  0  0  0  0  0  0
    4.5813   -2.1828   -0.1559 C   0  0  0  0  0  0  0  0  0  0  0  0
    3.3908   -2.7537   -0.9314 C   0  0  0  0  0  0  0  0  0  0  0  0
    3.8633   -3.3145   -2.2650 C   0  0  0  0  0  0  0  0  0  0  0  0
    2.7377   -3.8109   -2.9890 O   0  0  0  0  0  0  0  0  0  0  0  0
    3.0149   -4.3438   -4.2241 C   0  0  0  0  0  0  0  0  0  0  0  0
    4.2882   -4.4000   -4.8027 C   0  0  0  0  0  0  0  0  0  0  0  0
    4.4870   -4.9808   -6.0603 C   0  0  0  0  0  0  0  0  0  0  0  0
    3.3861   -5.5137   -6.7373 C   0  0  0  0  0  0  0  0  0  0  0  0
    2.1201   -5.4314   -6.1589 C   0  0  0  0  0  0  0  0  0  0  0  0
    1.8976   -4.8549   -4.9025 C   0  0  0  0  0  0  0  0  0  0  0  0
    1.3074   -6.0224   -7.0888 N   0  0  0  0  0  0  0  0  0  0  0  0
   -0.1259   -6.2418   -7.0146 C   0  0  0  0  0  0  0  0  0  0  0  0
   -0.6951   -6.6726   -8.3754 C   0  0  3  0  0  0  0  0  0  0  0  0
    0.2346   -7.7379   -8.9757 C   0  0  0  0  0  0  0  0  0  0  0  0
    1.5505   -7.1542   -9.1490 N   0  0  0  0  0  0  0  0  0  0  0  0
    2.0929   -6.4750   -8.1222 C   0  0  0  0  0  0  0  0  0  0  0  0
    3.3478   -6.1585   -7.9478 N   0  0  0  0  0  0  0  0  0  0  0  0
   -2.1335   -7.1984   -8.2731 C   0  0  0  0  0  0  0  0  0  0  0  0
   -3.1080   -6.2230   -7.7486 N   0  0  0  0  0  0  0  0  0  0  0  0
   -3.2023   -5.0262   -8.5925 C   0  0  0  0  0  0  0  0  0  0  0  0
   -4.4293   -6.8523   -7.6423 C   0  0  0  0  0  0  0  0  0  0  0  0
    5.4397   -1.2178    1.8684 C   0  0  0  0  0  0  0  0  0  0  0  0
    2.3171   -0.8549    0.6895 H   0  0  0  0  0  0  0  0  0  0  0  0
    3.6662    0.2759    0.4309 H   0  0  0  0  0  0  0  0  0  0  0  0
    3.0866   -0.1085    2.0663 H   0  0  0  0  0  0  0  0  0  0  0  0
    5.3092   -2.9965   -0.0148 H   0  0  0  0  0  0  0  0  0  0  0  0
    5.0790   -1.4128   -0.7606 H   0  0  0  0  0  0  0  0  0  0  0  0
    2.6342   -1.9875   -1.1324 H   0  0  0  0  0  0  0  0  0  0  0  0
    2.8902   -3.5403   -0.3534 H   0  0  0  0  0  0  0  0  0  0  0  0
    4.5796   -4.1251   -2.0828 H   0  0  0  0  0  0  0  0  0  0  0  0
    4.3414   -2.5081   -2.8349 H   0  0  0  0  0  0  0  0  0  0  0  0
    5.1661   -4.0058   -4.3026 H   0  0  0  0  0  0  0  0  0  0  0  0
    5.4742   -5.0308   -6.5043 H   0  0  0  0  0  0  0  0  0  0  0  0
    0.9081   -4.8091   -4.4590 H   0  0  0  0  0  0  0  0  0  0  0  0
   -0.5868   -5.3097   -6.6699 H   0  0  0  0  0  0  0  0  0  0  0  0
   -0.2808   -7.0167   -6.2533 H   0  0  0  0  0  0  0  0  0  0  0  0
   -0.6716   -5.8064   -9.0512 H   0  0  0  0  0  0  0  0  0  0  0  0
   -0.1389   -8.0705   -9.9497 H   0  0  0  0  0  0  0  0  0  0  0  0
    0.3012   -8.6211   -8.3264 H   0  0  0  0  0  0  0  0  0  0  0  0
    2.2086   -7.6541   -9.7412 H   0  0  0  0  0  0  0  0  0  0  0  0
   -2.1286   -8.0767   -7.6134 H   0  0  0  0  0  0  0  0  0  0  0  0
   -2.4549   -7.5532   -9.2619 H   0  0  0  0  0  0  0  0  0  0  0  0
   -2.3285   -4.3833   -8.4442 H   0  0  0  0  0  0  0  0  0  0  0  0
   -4.0715   -4.4160   -8.3208 H   0  0  0  0  0  0  0  0  0  0  0  0
   -3.2819   -5.2732   -9.6573 H   0  0  0  0  0  0  0  0  0  0  0  0
   -4.3936   -7.7092   -6.9608 H   0  0  0  0  0  0  0  0  0  0  0  0
   -4.8030   -7.1953   -8.6141 H   0  0  0  0  0  0  0  0  0  0  0  0
   -5.1584   -6.1508   -7.2211 H   0  0  0  0  0  0  0  0  0  0  0  0
    5.1973   -0.8612    2.8755 H   0  0  0  0  0  0  0  0  0  0  0  0
    5.9629   -0.4157    1.3345 H   0  0  0  0  0  0  0  0  0  0  0  0
    6.1325   -2.0577    1.9928 H   0  0  0  0  0  0  0  0  0  0  0  0
  1  2  1  0  0  0  0
  1 25  1  0  0  0  0
  1 26  1  0  0  0  0
  1 27  1  0  0  0  0
  2  3  1  0  0  0  0
  2 24  1  0  0  0  0
  3  4  1  0  0  0  0
  3 28  1  0  0  0  0
  3 29  1  0  0  0  0
  4  5  1  0  0  0  0
  4 30  1  0  0  0  0
  4 31  1  0  0  0  0
  5  6  1  0  0  0  0
  5 32  1  0  0  0  0
  5 33  1  0  0  0  0
  6  7  1  0  0  0  0
  7  8  1  0  0  0  0
  7 12  2  0  0  0  0
  8  9  2  0  0  0  0
  8 34  1  0  0  0  0
  9 10  1  0  0  0  0
  9 35  1  0  0  0  0
 10 11  2  0  0  0  0
 10 19  1  0  0  0  0
 11 12  1  0  0  0  0
 11 13  1  0  0  0  0
 12 36  1  0  0  0  0
 13 14  1  0  0  0  0
 13 18  1  0  0  0  0
 14 15  1  0  0  0  0
 14 37  1  0  0  0  0
 14 38  1  0  0  0  0
 15 16  1  0  0  0  0
 15 20  1  0  0  0  0
 15 39  1  0  0  0  0
 16 17  1  0  0  0  0
 16 40  1  0  0  0  0
 16 41  1  0  0  0  0
 17 18  1  0  0  0  0
 17 42  1  0  0  0  0
 18 19  2  0  0  0  0
 20 21  1  0  0  0  0
 20 43  1  0  0  0  0
 20 44  1  0  0  0  0
 21 22  1  0  0  0  0
 21 23  1  0  0  0  0
 22 45  1  0  0  0  0
 22 46  1  0  0  0  0
 22 47  1  0  0  0  0
 23 48  1  0  0  0  0
 23 49  1  0  0  0  0
 23 50  1  0  0  0  0
 24 51  1  0  0  0  0
 24 52  1  0  0  0  0
 24 53  1  0  0  0  0
M  END
$$$$
Target_lig_1142
 OpenBabel04172516583D

 50 52  0  0  1  0  0  0  0  0999 V2000
    5.4352   -0.0946    1.3938 C   0  0  0  0  0  0  0  0  0  0  0  0
    5.0208   -0.9225    2.5256 N   0  0  0  0  0  0  0  0  0  0  0  0
    4.6254   -2.2830    2.1203 C   0  0  0  0  0  0  0  0  0  0  0  0
    3.4047   -2.2693    1.1935 C   0  0  0  0  0  0  0  0  0  0  0  0
    2.9142   -3.6634    0.8092 C   0  0  0  0  0  0  0  0  0  0  0  0
    2.5786   -4.6227    1.8382 N   0  0  0  0  0  0  0  0  0  0  0  0
    1.9752   -4.4045    3.0623 C   0  0  0  0  0  0  0  0  0  0  0  0
    1.5722   -3.2062    3.5058 N   0  0  0  0  0  0  0  0  0  0  0  0
    1.8582   -5.5122    3.7546 N   0  0  0  0  0  0  0  0  0  0  0  0
    2.3345   -6.5083    2.9496 C   0  0  0  0  0  0  0  0  0  0  0  0
    2.7699   -5.9830    1.7399 C   0  0  0  0  0  0  0  0  0  0  0  0
    3.2509   -6.7920    0.7485 C   0  0  0  0  0  0  0  0  0  0  0  0
    3.7282   -6.4812   -0.6008 C   0  0  0  0  0  0  0  0  0  0  0  0
    3.7499   -7.9036   -1.2083 C   0  0  3  0  0  0  0  0  0  0  0  0
    3.7545   -8.8801   -0.1117 O   0  0  0  0  0  0  0  0  0  0  0  0
    3.2989   -8.1672    0.9836 C   0  0  0  0  0  0  0  0  0  0  0  0
    2.9200   -8.7624    2.1785 C   0  0  0  0  0  0  0  0  0  0  0  0
    2.4213   -7.8995    3.1746 C   0  0  0  0  0  0  0  0  0  0  0  0
    2.5130   -8.1846   -2.0948 C   0  0  0  0  0  0  0  0  0  0  0  0
    2.3200   -7.2626   -3.2342 N   0  0  0  0  0  0  0  0  0  0  0  0
    3.4256   -7.3328   -4.1896 C   0  0  0  0  0  0  0  0  0  0  0  0
    1.0558   -7.5753   -3.9082 C   0  0  0  0  0  0  0  0  0  0  0  0
    6.0974   -0.9920    3.5166 C   0  0  0  0  0  0  0  0  0  0  0  0
    4.5924    0.1107    0.7261 H   0  0  0  0  0  0  0  0  0  0  0  0
    6.2377   -0.5616    0.8124 H   0  0  0  0  0  0  0  0  0  0  0  0
    5.7809    0.8860    1.7385 H   0  0  0  0  0  0  0  0  0  0  0  0
    4.3817   -2.8553    3.0228 H   0  0  0  0  0  0  0  0  0  0  0  0
    5.4589   -2.8044    1.6313 H   0  0  0  0  0  0  0  0  0  0  0  0
    3.6674   -1.7742    0.2501 H   0  0  0  0  0  0  0  0  0  0  0  0
    2.5990   -1.6703    1.6257 H   0  0  0  0  0  0  0  0  0  0  0  0
    3.7190   -4.0967    0.2114 H   0  0  0  0  0  0  0  0  0  0  0  0
    2.0336   -3.5832    0.1612 H   0  0  0  0  0  0  0  0  0  0  0  0
    1.2784   -2.4677    2.8821 H   0  0  0  0  0  0  0  0  0  0  0  0
    1.0375   -3.2271    4.3694 H   0  0  0  0  0  0  0  0  0  0  0  0
    4.7462   -6.0805   -0.5407 H   0  0  0  0  0  0  0  0  0  0  0  0
    3.0862   -5.7862   -1.1448 H   0  0  0  0  0  0  0  0  0  0  0  0
    4.6695   -8.0602   -1.7836 H   0  0  0  0  0  0  0  0  0  0  0  0
    2.9881   -9.8332    2.3180 H   0  0  0  0  0  0  0  0  0  0  0  0
    2.0822   -8.3011    4.1242 H   0  0  0  0  0  0  0  0  0  0  0  0
    1.6243   -8.1325   -1.4498 H   0  0  0  0  0  0  0  0  0  0  0  0
    2.5577   -9.2264   -2.4399 H   0  0  0  0  0  0  0  0  0  0  0  0
    4.3481   -6.9450   -3.7454 H   0  0  0  0  0  0  0  0  0  0  0  0
    3.2242   -6.7002   -5.0616 H   0  0  0  0  0  0  0  0  0  0  0  0
    3.6066   -8.3549   -4.5396 H   0  0  0  0  0  0  0  0  0  0  0  0
    0.2129   -7.4664   -3.2164 H   0  0  0  0  0  0  0  0  0  0  0  0
    1.0443   -8.5947   -4.3107 H   0  0  0  0  0  0  0  0  0  0  0  0
    0.8740   -6.8760   -4.7319 H   0  0  0  0  0  0  0  0  0  0  0  0
    6.3552    0.0117    3.8722 H   0  0  0  0  0  0  0  0  0  0  0  0
    7.0022   -1.4587    3.1105 H   0  0  0  0  0  0  0  0  0  0  0  0
    5.7789   -1.5613    4.3972 H   0  0  0  0  0  0  0  0  0  0  0  0
  1  2  1  0  0  0  0
  1 24  1  0  0  0  0
  1 25  1  0  0  0  0
  1 26  1  0  0  0  0
  2  3  1  0  0  0  0
  2 23  1  0  0  0  0
  3  4  1  0  0  0  0
  3 27  1  0  0  0  0
  3 28  1  0  0  0  0
  4  5  1  0  0  0  0
  4 29  1  0  0  0  0
  4 30  1  0  0  0  0
  5  6  1  0  0  0  0
  5 31  1  0  0  0  0
  5 32  1  0  0  0  0
  6  7  1  0  0  0  0
  6 11  1  0  0  0  0
  7  8  1  0  0  0  0
  7  9  2  0  0  0  0
  8 33  1  0  0  0  0
  8 34  1  0  0  0  0
  9 10  1  0  0  0  0
 10 11  1  0  0  0  0
 10 18  2  0  0  0  0
 11 12  2  0  0  0  0
 12 13  1  0  0  0  0
 12 16  1  0  0  0  0
 13 14  1  0  0  0  0
 13 35  1  0  0  0  0
 13 36  1  0  0  0  0
 14 15  1  0  0  0  0
 14 19  1  0  0  0  0
 14 37  1  0  0  0  0
 15 16  1  0  0  0  0
 16 17  2  0  0  0  0
 17 18  1  0  0  0  0
 17 38  1  0  0  0  0
 18 39  1  0  0  0  0
 19 20  1  0  0  0  0
 19 40  1  0  0  0  0
 19 41  1  0  0  0  0
 20 21  1  0  0  0  0
 20 22  1  0  0  0  0
 21 42  1  0  0  0  0
 21 43  1  0  0  0  0
 21 44  1  0  0  0  0
 22 45  1  0  0  0  0
 22 46  1  0  0  0  0
 22 47  1  0  0  0  0
 23 48  1  0  0  0  0
 23 49  1  0  0  0  0
 23 50  1  0  0  0  0
M  END
$$$$
Target_lig_1143
 OpenBabel04172516583D

 53 55  0  0  1  0  0  0  0  0999 V2000
    6.7051   -1.2084    0.4158 C   0  0  0  0  0  0  0  0  0  0  0  0
    6.3875   -1.6667    1.7710 N   0  0  0  0  0  0  0  0  0  0  0  0
    5.5531   -2.8893    1.7923 C   0  0  0  0  0  0  0  0  0  0  0  0
    4.2064   -2.6287    1.1103 C   0  0  0  0  0  0  0  0  0  0  0  0
    3.1451   -3.7262    1.1866 C   0  0  0  0  0  0  0  0  0  0  0  0
    2.8091   -4.3361    2.4571 N   0  0  0  0  0  0  0  0  0  0  0  0
    2.9175   -5.6962    2.7028 C   0  0  0  0  0  0  0  0  0  0  0  0
    3.3669   -6.5935    1.8048 N   0  0  0  0  0  0  0  0  0  0  0  0
    2.5055   -6.0077    3.9017 N   0  0  0  0  0  0  0  0  0  0  0  0
    2.0677   -4.8386    4.4519 C   0  0  0  0  0  0  0  0  0  0  0  0
    2.2139   -3.7560    3.5745 C   0  0  0  0  0  0  0  0  0  0  0  0
    1.7856   -2.4522    3.9426 C   0  0  0  0  0  0  0  0  0  0  0  0
    1.8474   -1.2442    3.0543 C   0  0  0  0  0  0  0  0  0  0  0  0
    1.0933   -0.0401    3.6160 C   0  0  3  0  0  0  0  0  0  0  0  0
    1.4568    0.0532    5.0926 C   0  0  0  0  0  0  0  0  0  0  0  0
    0.9472   -1.0813    5.8012 O   0  0  0  0  0  0  0  0  0  0  0  0
    1.3101   -2.2961    5.2669 C   0  0  0  0  0  0  0  0  0  0  0  0
    1.1495   -3.3756    6.1300 C   0  0  0  0  0  0  0  0  0  0  0  0
    1.5102   -4.6575    5.7273 C   0  0  0  0  0  0  0  0  0  0  0  0
    1.4710    1.2474    2.8589 C   0  0  0  0  0  0  0  0  0  0  0  0
    1.1559    1.1935    1.4173 N   0  0  0  0  0  0  0  0  0  0  0  0
   -0.2878    1.1149    1.1794 C   0  0  0  0  0  0  0  0  0  0  0  0
    1.7140    2.3596    0.7291 C   0  0  0  0  0  0  0  0  0  0  0  0
    7.6246   -1.8509    2.5297 C   0  0  0  0  0  0  0  0  0  0  0  0
    5.8118   -0.8694   -0.1125 H   0  0  0  0  0  0  0  0  0  0  0  0
    7.1919   -1.9891   -0.1785 H   0  0  0  0  0  0  0  0  0  0  0  0
    7.3700   -0.3332    0.4458 H   0  0  0  0  0  0  0  0  0  0  0  0
    5.3751   -3.1722    2.8372 H   0  0  0  0  0  0  0  0  0  0  0  0
    6.0701   -3.7247    1.3059 H   0  0  0  0  0  0  0  0  0  0  0  0
    4.3745   -2.4590    0.0385 H   0  0  0  0  0  0  0  0  0  0  0  0
    3.8037   -1.6870    1.4710 H   0  0  0  0  0  0  0  0  0  0  0  0
    3.4737   -4.5147    0.5023 H   0  0  0  0  0  0  0  0  0  0  0  0
    2.2044   -3.3539    0.7666 H   0  0  0  0  0  0  0  0  0  0  0  0
    3.0938   -6.4993    0.8347 H   0  0  0  0  0  0  0  0  0  0  0  0
    3.2278   -7.5530    2.1182 H   0  0  0  0  0  0  0  0  0  0  0  0
    1.4645   -1.4930    2.0596 H   0  0  0  0  0  0  0  0  0  0  0  0
    2.9003   -0.9597    2.9910 H   0  0  0  0  0  0  0  0  0  0  0  0
    0.0128   -0.2225    3.5517 H   0  0  0  0  0  0  0  0  0  0  0  0
    1.0062    0.9427    5.5440 H   0  0  0  0  0  0  0  0  0  0  0  0
    2.5419    0.1255    5.2527 H   0  0  0  0  0  0  0  0  0  0  0  0
    0.7493   -3.2172    7.1280 H   0  0  0  0  0  0  0  0  0  0  0  0
    1.3856   -5.5078    6.3879 H   0  0  0  0  0  0  0  0  0  0  0  0
    2.5530    1.4035    2.9761 H   0  0  0  0  0  0  0  0  0  0  0  0
    0.9820    2.1126    3.3263 H   0  0  0  0  0  0  0  0  0  0  0  0
   -0.6774    0.1371    1.4754 H   0  0  0  0  0  0  0  0  0  0  0  0
   -0.5162    1.2161    0.1120 H   0  0  0  0  0  0  0  0  0  0  0  0
   -0.8396    1.8920    1.7214 H   0  0  0  0  0  0  0  0  0  0  0  0
    2.8043    2.3838    0.8348 H   0  0  0  0  0  0  0  0  0  0  0  0
    1.3048    3.3018    1.1113 H   0  0  0  0  0  0  0  0  0  0  0  0
    1.5103    2.3056   -0.3469 H   0  0  0  0  0  0  0  0  0  0  0  0
    8.1820   -0.9098    2.5835 H   0  0  0  0  0  0  0  0  0  0  0  0
    8.2756   -2.6101    2.0806 H   0  0  0  0  0  0  0  0  0  0  0  0
    7.4095   -2.1414    3.5645 H   0  0  0  0  0  0  0  0  0  0  0  0
  1  2  1  0  0  0  0
  1 25  1  0  0  0  0
  1 26  1  0  0  0  0
  1 27  1  0  0  0  0
  2  3  1  0  0  0  0
  2 24  1  0  0  0  0
  3  4  1  0  0  0  0
  3 28  1  0  0  0  0
  3 29  1  0  0  0  0
  4  5  1  0  0  0  0
  4 30  1  0  0  0  0
  4 31  1  0  0  0  0
  5  6  1  0  0  0  0
  5 32  1  0  0  0  0
  5 33  1  0  0  0  0
  6  7  1  0  0  0  0
  6 11  1  0  0  0  0
  7  8  1  0  0  0  0
  7  9  2  0  0  0  0
  8 34  1  0  0  0  0
  8 35  1  0  0  0  0
  9 10  1  0  0  0  0
 10 11  1  0  0  0  0
 10 19  2  0  0  0  0
 11 12  2  0  0  0  0
 12 13  1  0  0  0  0
 12 17  1  0  0  0  0
 13 14  1  0  0  0  0
 13 36  1  0  0  0  0
 13 37  1  0  0  0  0
 14 15  1  0  0  0  0
 14 20  1  0  0  0  0
 14 38  1  0  0  0  0
 15 16  1  0  0  0  0
 15 39  1  0  0  0  0
 15 40  1  0  0  0  0
 16 17  1  0  0  0  0
 17 18  2  0  0  0  0
 18 19  1  0  0  0  0
 18 41  1  0  0  0  0
 19 42  1  0  0  0  0
 20 21  1  0  0  0  0
 20 43  1  0  0  0  0
 20 44  1  0  0  0  0
 21 22  1  0  0  0  0
 21 23  1  0  0  0  0
 22 45  1  0  0  0  0
 22 46  1  0  0  0  0
 22 47  1  0  0  0  0
 23 48  1  0  0  0  0
 23 49  1  0  0  0  0
 23 50  1  0  0  0  0
 24 51  1  0  0  0  0
 24 52  1  0  0  0  0
 24 53  1  0  0  0  0
M  END
$$$$
Target_lig_1251
 OpenBabel04172516583D

 88 91  0  0  1  0  0  0  0  0999 V2000
    0.3228    1.6703   -0.2000 C   0  0  0  0  0  0  0  0  0  0  0  0
    1.3100    0.5797    0.2307 C   0  0  3  0  0  0  0  0  0  0  0  0
    0.7597   -0.8044   -0.1741 C   0  0  3  0  0  0  0  0  0  0  0  0
   -0.6366   -1.0986    0.4259 C   0  0  3  0  0  0  0  0  0  0  0  0
   -1.6149   -0.0147   -0.1549 C   0  0  3  0  0  0  0  0  0  0  0  0
   -1.1422    1.4264    0.2474 C   0  0  3  0  0  0  0  0  0  0  0  0
   -1.9605    2.4855   -0.3829 N   0  0  0  0  0  0  0  0  0  0  0  0
   -3.0235   -0.2608    0.1224 O   0  0  0  0  0  0  0  0  0  0  0  0
   -3.5225   -1.5266   -0.3441 C   0  0  3  0  0  0  0  0  0  0  0  0
   -3.4267   -1.7212   -1.8942 C   0  0  3  0  0  0  0  0  0  0  0  0
   -4.6855   -1.1760   -2.5826 C   0  0  3  0  0  0  0  0  0  0  0  0
   -5.9482   -1.7939   -1.9864 C   0  0  3  0  0  0  0  0  0  0  0  0
   -5.9791   -1.4310   -0.4919 C   0  0  3  0  0  0  0  0  0  0  0  0
   -4.8021   -1.9015    0.1955 O   0  0  0  0  0  0  0  0  0  0  0  0
   -7.2356   -2.0789    0.1428 C   0  0  0  0  0  0  0  0  0  0  0  0
   -7.4259   -1.7013    1.5459 N   0  0  0  0  0  0  0  0  0  0  0  0
   -5.9777   -3.2258   -2.1544 O   0  0  0  0  0  0  0  0  0  0  0  0
   -4.6176   -1.4402   -3.9917 O   0  0  0  0  0  0  0  0  0  0  0  0
   -3.1949   -3.1510   -2.2841 N   0  0  0  0  0  0  0  0  0  0  0  0
   -0.7082   -1.1418    1.8735 O   0  0  0  0  0  0  0  0  0  0  0  0
   -0.0053   -2.2268    2.5075 C   0  0  3  0  0  0  0  0  0  0  0  0
   -0.5752   -3.6221    2.1551 C   0  0  3  0  0  0  0  0  0  0  0  0
   -0.8811   -4.2823    3.5070 C   0  0  3  0  0  0  0  0  0  0  0  0
    0.0235   -3.5014    4.4566 C   0  0  3  0  0  0  0  0  0  0  0  0
   -0.0466   -2.1359    3.9430 O   0  0  0  0  0  0  0  0  0  0  0  0
    1.4802   -3.9689    4.6340 C   0  0  0  0  0  0  0  0  0  0  0  0
    2.2923   -3.9091    3.4697 O   0  0  0  0  0  0  0  0  0  0  0  0
   -0.7912   -5.7071    3.3961 O   0  0  0  0  0  0  0  0  0  0  0  0
   -0.9800   -6.4561    4.6043 C   0  0  3  0  0  0  0  0  0  0  0  0
   -0.8651   -7.9832    4.3007 C   0  0  3  0  0  0  0  0  0  0  0  0
   -2.1685   -8.4852    3.6420 C   0  0  3  0  0  0  0  0  0  0  0  0
   -3.4262   -8.0961    4.4283 C   0  0  3  0  0  0  0  0  0  0  0  0
   -3.4033   -6.5842    4.7226 C   0  0  3  0  0  0  0  0  0  0  0  0
   -2.1664   -6.1684    5.3421 O   0  0  0  0  0  0  0  0  0  0  0  0
   -4.5628   -6.2138    5.6756 C   0  0  0  0  0  0  0  0  0  0  0  0
   -4.6072   -4.7729    5.9436 N   0  0  0  0  0  0  0  0  0  0  0  0
   -3.5496   -8.8694    5.6325 O   0  0  0  0  0  0  0  0  0  0  0  0
   -2.1094   -9.9056    3.4674 O   0  0  0  0  0  0  0  0  0  0  0  0
   -0.5312   -8.7870    5.5090 N   0  0  0  0  0  0  0  0  0  0  0  0
    0.3843   -4.3902    1.4080 O   0  0  0  0  0  0  0  0  0  0  0  0
    1.7103   -1.8323    0.0946 O   0  0  0  0  0  0  0  0  0  0  0  0
    1.6249    0.7140    1.6577 N   0  0  0  0  0  0  0  0  0  0  0  0
    0.3567    1.7199   -1.3000 H   0  0  0  0  0  0  0  0  0  0  0  0
    0.6748    2.6519    0.1474 H   0  0  0  0  0  0  0  0  0  0  0  0
    2.2562    0.7354   -0.3037 H   0  0  0  0  0  0  0  0  0  0  0  0
    0.6523   -0.8043   -1.2677 H   0  0  0  0  0  0  0  0  0  0  0  0
   -0.9309   -2.0803    0.0556 H   0  0  0  0  0  0  0  0  0  0  0  0
   -1.5081   -0.0270   -1.2432 H   0  0  0  0  0  0  0  0  0  0  0  0
   -1.2306    1.5507    1.3332 H   0  0  0  0  0  0  0  0  0  0  0  0
   -1.8287    2.4910   -1.3922 H   0  0  0  0  0  0  0  0  0  0  0  0
   -1.6286    3.3954   -0.0585 H   0  0  0  0  0  0  0  0  0  0  0  0
   -2.8825   -2.2756    0.1187 H   0  0  0  0  0  0  0  0  0  0  0  0
   -2.5821   -1.1870   -2.3317 H   0  0  0  0  0  0  0  0  0  0  0  0
   -4.7281   -0.0859   -2.4692 H   0  0  0  0  0  0  0  0  0  0  0  0
   -6.8327   -1.4143   -2.5056 H   0  0  0  0  0  0  0  0  0  0  0  0
   -6.0340   -0.3416   -0.3745 H   0  0  0  0  0  0  0  0  0  0  0  0
   -7.1638   -3.1723    0.1004 H   0  0  0  0  0  0  0  0  0  0  0  0
   -8.1311   -1.7810   -0.4174 H   0  0  0  0  0  0  0  0  0  0  0  0
   -6.6062   -2.0228    2.0642 H   0  0  0  0  0  0  0  0  0  0  0  0
   -8.2204   -2.2149    1.9227 H   0  0  0  0  0  0  0  0  0  0  0  0
   -5.1811   -3.4784   -2.6584 H   0  0  0  0  0  0  0  0  0  0  0  0
   -4.1690   -2.3011   -4.0830 H   0  0  0  0  0  0  0  0  0  0  0  0
   -3.5585   -3.7407   -1.5230 H   0  0  0  0  0  0  0  0  0  0  0  0
   -2.1875   -3.3276   -2.2677 H   0  0  0  0  0  0  0  0  0  0  0  0
    1.0491   -2.1471    2.2432 H   0  0  0  0  0  0  0  0  0  0  0  0
   -1.4882   -3.5787    1.5480 H   0  0  0  0  0  0  0  0  0  0  0  0
   -1.9194   -4.0258    3.7559 H   0  0  0  0  0  0  0  0  0  0  0  0
   -0.4281   -3.4959    5.4560 H   0  0  0  0  0  0  0  0  0  0  0  0
    1.5374   -4.9938    5.0108 H   0  0  0  0  0  0  0  0  0  0  0  0
    1.9695   -3.3324    5.3775 H   0  0  0  0  0  0  0  0  0  0  0  0
    1.9037   -4.4489    2.7598 H   0  0  0  0  0  0  0  0  0  0  0  0
   -0.1511   -6.2051    5.2684 H   0  0  0  0  0  0  0  0  0  0  0  0
   -0.0525   -8.1555    3.5833 H   0  0  0  0  0  0  0  0  0  0  0  0
   -2.2420   -8.0514    2.6375 H   0  0  0  0  0  0  0  0  0  0  0  0
   -4.3147   -8.3497    3.8385 H   0  0  0  0  0  0  0  0  0  0  0  0
   -3.5138   -6.0299    3.7828 H   0  0  0  0  0  0  0  0  0  0  0  0
   -4.4419   -6.7222    6.6403 H   0  0  0  0  0  0  0  0  0  0  0  0
   -5.5200   -6.5275    5.2461 H   0  0  0  0  0  0  0  0  0  0  0  0
   -3.7390   -4.5122    6.4145 H   0  0  0  0  0  0  0  0  0  0  0  0
   -5.3539   -4.5839    6.6130 H   0  0  0  0  0  0  0  0  0  0  0  0
   -2.8048   -8.6450    6.2137 H   0  0  0  0  0  0  0  0  0  0  0  0
   -1.9504  -10.2605    4.3667 H   0  0  0  0  0  0  0  0  0  0  0  0
   -0.8717   -8.3138    6.3476 H   0  0  0  0  0  0  0  0  0  0  0  0
    0.4848   -8.7882    5.6234 H   0  0  0  0  0  0  0  0  0  0  0  0
    0.1398   -5.3292    1.5658 H   0  0  0  0  0  0  0  0  0  0  0  0
    1.3267   -2.6930   -0.1548 H   0  0  0  0  0  0  0  0  0  0  0  0
    0.8226    0.4171    2.2213 H   0  0  0  0  0  0  0  0  0  0  0  0
    2.3568    0.0379    1.8838 H   0  0  0  0  0  0  0  0  0  0  0  0
  1  2  1  0  0  0  0
  1  6  1  0  0  0  0
  1 43  1  0  0  0  0
  1 44  1  0  0  0  0
  2  3  1  0  0  0  0
  2 42  1  0  0  0  0
  2 45  1  0  0  0  0
  3  4  1  0  0  0  0
  3 41  1  0  0  0  0
  3 46  1  0  0  0  0
  4  5  1  0  0  0  0
  4 20  1  0  0  0  0
  4 47  1  0  0  0  0
  5  6  1  0  0  0  0
  5  8  1  0  0  0  0
  5 48  1  0  0  0  0
  6  7  1  0  0  0  0
  6 49  1  0  0  0  0
  7 50  1  0  0  0  0
  7 51  1  0  0  0  0
  8  9  1  0  0  0  0
  9 10  1  0  0  0  0
  9 14  1  0  0  0  0
  9 52  1  0  0  0  0
 10 11  1  0  0  0  0
 10 19  1  0  0  0  0
 10 53  1  0  0  0  0
 11 12  1  0  0  0  0
 11 18  1  0  0  0  0
 11 54  1  0  0  0  0
 12 13  1  0  0  0  0
 12 17  1  0  0  0  0
 12 55  1  0  0  0  0
 13 14  1  0  0  0  0
 13 15  1  0  0  0  0
 13 56  1  0  0  0  0
 15 16  1  0  0  0  0
 15 57  1  0  0  0  0
 15 58  1  0  0  0  0
 16 59  1  0  0  0  0
 16 60  1  0  0  0  0
 17 61  1  0  0  0  0
 18 62  1  0  0  0  0
 19 63  1  0  0  0  0
 19 64  1  0  0  0  0
 20 21  1  0  0  0  0
 21 22  1  0  0  0  0
 21 25  1  0  0  0  0
 21 65  1  0  0  0  0
 22 23  1  0  0  0  0
 22 40  1  0  0  0  0
 22 66  1  0  0  0  0
 23 24  1  0  0  0  0
 23 28  1  0  0  0  0
 23 67  1  0  0  0  0
 24 25  1  0  0  0  0
 24 26  1  0  0  0  0
 24 68  1  0  0  0  0
 26 27  1  0  0  0  0
 26 69  1  0  0  0  0
 26 70  1  0  0  0  0
 27 71  1  0  0  0  0
 28 29  1  0  0  0  0
 29 30  1  0  0  0  0
 29 34  1  0  0  0  0
 29 72  1  0  0  0  0
 30 31  1  0  0  0  0
 30 39  1  0  0  0  0
 30 73  1  0  0  0  0
 31 32  1  0  0  0  0
 31 38  1  0  0  0  0
 31 74  1  0  0  0  0
 32 33  1  0  0  0  0
 32 37  1  0  0  0  0
 32 75  1  0  0  0  0
 33 34  1  0  0  0  0
 33 35  1  0  0  0  0
 33 76  1  0  0  0  0
 35 36  1  0  0  0  0
 35 77  1  0  0  0  0
 35 78  1  0  0  0  0
 36 79  1  0  0  0  0
 36 80  1  0  0  0  0
 37 81  1  0  0  0  0
 38 82  1  0  0  0  0
 39 83  1  0  0  0  0
 39 84  1  0  0  0  0
 40 85  1  0  0  0  0
 41 86  1  0  0  0  0
 42 87  1  0  0  0  0
 42 88  1  0  0  0  0
M  END
$$$$
Target_lig_1155
 OpenBabel04172516583D

 70 72  0  0  1  0  0  0  0  0999 V2000
    4.9807   -8.6862   -1.2702 N   0  0  0  0  0  0  0  0  0  0  0  0
    3.7600   -7.8564   -1.2837 C   0  0  0  0  0  0  0  0  0  0  0  0
    3.2261   -7.4742    0.1423 C   0  0  3  0  0  0  0  0  0  0  0  0
    2.0435   -6.5897    0.1486 O   0  0  0  0  0  0  0  0  0  0  0  0
    2.2565   -5.1732   -0.0653 C   0  0  3  0  0  0  0  0  0  0  0  0
    1.1205   -4.2808    0.2789 O   0  0  0  0  0  0  0  0  0  0  0  0
   -0.1613   -4.3962   -0.4091 C   0  0  3  0  0  0  0  0  0  0  0  0
   -0.1008   -4.1169   -1.9418 C   0  0  3  0  0  0  0  0  0  0  0  0
   -1.1814   -4.7933   -2.6747 N   0  0  0  0  0  0  0  0  0  0  0  0
   -0.0823   -2.6209   -2.3139 C   0  0  0  0  0  0  0  0  0  0  0  0
   -1.0938   -1.6941   -1.6138 C   0  0  3  0  0  0  0  0  0  0  0  0
   -1.0087   -1.9114   -0.0744 C   0  0  3  0  0  0  0  0  0  0  0  0
   -1.2673   -3.4239    0.2441 C   0  0  3  0  0  0  0  0  0  0  0  0
   -1.3559   -3.6678    1.6426 O   0  0  0  0  0  0  0  0  0  0  0  0
   -1.8893   -0.9868    0.6425 O   0  0  0  0  0  0  0  0  0  0  0  0
   -1.4427    0.3889    0.5762 C   0  0  3  0  0  0  0  0  0  0  0  0
   -0.2206    0.6050    1.2818 O   0  0  0  0  0  0  0  0  0  0  0  0
   -0.3327    0.2819    2.6785 C   0  0  3  0  0  0  0  0  0  0  0  0
    1.0723    0.4879    3.3023 C   0  0  0  0  0  0  0  0  0  0  0  0
    1.5450    1.8804    3.3307 N   0  0  0  0  0  0  0  0  0  0  0  0
   -1.5127    0.9782    3.4351 C   0  0  3  0  0  0  0  0  0  0  0  0
   -2.7239    1.3821    2.5481 C   0  0  3  0  0  0  0  0  0  0  0  0
   -2.4517    1.4586    1.0470 C   0  0  3  0  0  0  0  0  0  0  0  0
   -3.6933    1.4228    0.3228 O   0  0  0  0  0  0  0  0  0  0  0  0
   -3.2405    2.6624    2.9978 O   0  0  0  0  0  0  0  0  0  0  0  0
   -1.1596    2.1011    4.3507 N   0  0  0  0  0  0  0  0  0  0  0  0
   -2.4538   -1.7165   -2.1604 N   0  0  0  0  0  0  0  0  0  0  0  0
    3.4621   -4.6541    0.8167 C   0  0  3  0  0  0  0  0  0  0  0  0
    4.6992   -5.5356    0.6897 C   0  0  0  0  0  0  0  0  0  0  0  0
    4.3553   -6.9642    1.0759 C   0  0  3  0  0  0  0  0  0  0  0  0
    5.5431   -7.7573    1.0964 O   0  0  0  0  0  0  0  0  0  0  0  0
    3.1039   -4.5285    2.2540 N   0  0  0  0  0  0  0  0  0  0  0  0
    5.3800   -8.7672   -2.2080 H   0  0  0  0  0  0  0  0  0  0  0  0
    4.7537   -9.6469   -0.9881 H   0  0  0  0  0  0  0  0  0  0  0  0
    2.9835   -8.3967   -1.8363 H   0  0  0  0  0  0  0  0  0  0  0  0
    3.9758   -6.9496   -1.8574 H   0  0  0  0  0  0  0  0  0  0  0  0
    2.8729   -8.4228    0.5725 H   0  0  0  0  0  0  0  0  0  0  0  0
    2.5079   -5.0202   -1.1190 H   0  0  0  0  0  0  0  0  0  0  0  0
   -0.4836   -5.4296   -0.2247 H   0  0  0  0  0  0  0  0  0  0  0  0
    0.8275   -4.5359   -2.3398 H   0  0  0  0  0  0  0  0  0  0  0  0
   -2.0864   -4.3678   -2.4954 H   0  0  0  0  0  0  0  0  0  0  0  0
   -1.2640   -5.7622   -2.3651 H   0  0  0  0  0  0  0  0  0  0  0  0
   -0.1782   -2.4945   -3.4009 H   0  0  0  0  0  0  0  0  0  0  0  0
    0.9116   -2.2301   -2.0634 H   0  0  0  0  0  0  0  0  0  0  0  0
   -0.7550   -0.6787   -1.8350 H   0  0  0  0  0  0  0  0  0  0  0  0
    0.0108   -1.6926    0.2663 H   0  0  0  0  0  0  0  0  0  0  0  0
   -2.2480   -3.7068   -0.1601 H   0  0  0  0  0  0  0  0  0  0  0  0
   -0.4438   -3.6917    1.9814 H   0  0  0  0  0  0  0  0  0  0  0  0
   -1.2533    0.6393   -0.4691 H   0  0  0  0  0  0  0  0  0  0  0  0
   -0.5178   -0.7947    2.7342 H   0  0  0  0  0  0  0  0  0  0  0  0
    1.8012   -0.0889    2.7207 H   0  0  0  0  0  0  0  0  0  0  0  0
    1.0764    0.0929    4.3279 H   0  0  0  0  0  0  0  0  0  0  0  0
    1.6311    2.2112    2.3678 H   0  0  0  0  0  0  0  0  0  0  0  0
    2.4925    1.8986    3.7141 H   0  0  0  0  0  0  0  0  0  0  0  0
   -1.8987    0.2115    4.1207 H   0  0  0  0  0  0  0  0  0  0  0  0
   -3.5450    0.6796    2.7285 H   0  0  0  0  0  0  0  0  0  0  0  0
   -2.0122    2.4435    0.8378 H   0  0  0  0  0  0  0  0  0  0  0  0
   -3.5311    1.0435   -0.5568 H   0  0  0  0  0  0  0  0  0  0  0  0
   -2.7656    2.8301    3.8427 H   0  0  0  0  0  0  0  0  0  0  0  0
   -0.4637    2.6819    3.8694 H   0  0  0  0  0  0  0  0  0  0  0  0
   -0.6020    1.7127    5.1220 H   0  0  0  0  0  0  0  0  0  0  0  0
   -2.8753   -2.6416   -2.1848 H   0  0  0  0  0  0  0  0  0  0  0  0
   -2.4630   -1.3812   -3.1263 H   0  0  0  0  0  0  0  0  0  0  0  0
    3.7154   -3.6385    0.4871 H   0  0  0  0  0  0  0  0  0  0  0  0
    5.5268   -5.1684    1.3073 H   0  0  0  0  0  0  0  0  0  0  0  0
    5.0824   -5.5083   -0.3404 H   0  0  0  0  0  0  0  0  0  0  0  0
    3.9876   -6.9964    2.1052 H   0  0  0  0  0  0  0  0  0  0  0  0
    5.6936   -8.0854    0.1824 H   0  0  0  0  0  0  0  0  0  0  0  0
    2.7111   -5.4283    2.5690 H   0  0  0  0  0  0  0  0  0  0  0  0
    2.3413   -3.8841    2.3351 H   0  0  0  0  0  0  0  0  0  0  0  0
  1  2  1  0  0  0  0
  1 33  1  0  0  0  0
  1 34  1  0  0  0  0
  2  3  1  0  0  0  0
  2 35  1  0  0  0  0
  2 36  1  0  0  0  0
  3  4  1  0  0  0  0
  3 30  1  0  0  0  0
  3 37  1  0  0  0  0
  4  5  1  0  0  0  0
  5  6  1  0  0  0  0
  5 28  1  0  0  0  0
  5 38  1  0  0  0  0
  6  7  1  0  0  0  0
  7  8  1  0  0  0  0
  7 13  1  0  0  0  0
  7 39  1  0  0  0  0
  8  9  1  0  0  0  0
  8 10  1  0  0  0  0
  8 40  1  0  0  0  0
  9 41  1  0  0  0  0
  9 42  1  0  0  0  0
 10 11  1  0  0  0  0
 10 43  1  0  0  0  0
 10 44  1  0  0  0  0
 11 12  1  0  0  0  0
 11 27  1  0  0  0  0
 11 45  1  0  0  0  0
 12 13  1  0  0  0  0
 12 15  1  0  0  0  0
 12 46  1  0  0  0  0
 13 14  1  0  0  0  0
 13 47  1  0  0  0  0
 14 48  1  0  0  0  0
 15 16  1  0  0  0  0
 16 17  1  0  0  0  0
 16 23  1  0  0  0  0
 16 49  1  0  0  0  0
 17 18  1  0  0  0  0
 18 19  1  0  0  0  0
 18 21  1  0  0  0  0
 18 50  1  0  0  0  0
 19 20  1  0  0  0  0
 19 51  1  0  0  0  0
 19 52  1  0  0  0  0
 20 53  1  0  0  0  0
 20 54  1  0  0  0  0
 21 22  1  0  0  0  0
 21 26  1  0  0  0  0
 21 55  1  0  0  0  0
 22 23  1  0  0  0  0
 22 25  1  0  0  0  0
 22 56  1  0  0  0  0
 23 24  1  0  0  0  0
 23 57  1  0  0  0  0
 24 58  1  0  0  0  0
 25 59  1  0  0  0  0
 26 60  1  0  0  0  0
 26 61  1  0  0  0  0
 27 62  1  0  0  0  0
 27 63  1  0  0  0  0
 28 29  1  0  0  0  0
 28 32  1  0  0  0  0
 28 64  1  0  0  0  0
 29 30  1  0  0  0  0
 29 65  1  0  0  0  0
 29 66  1  0  0  0  0
 30 31  1  0  0  0  0
 30 67  1  0  0  0  0
 31 68  1  0  0  0  0
 32 69  1  0  0  0  0
 32 70  1  0  0  0  0
M  END
$$$$
Target_lig_1156
 OpenBabel04172516583D

 92 95  0  0  1  0  0  0  0  0999 V2000
    0.6287    0.1990   -0.6247 N   0  0  0  0  0  0  0  0  0  0  0  0
    2.0668    0.0462   -0.7894 C   0  0  0  0  0  0  0  0  0  0  0  0
    2.8312   -0.7943    0.2831 C   0  0  3  0  0  0  0  0  0  0  0  0
    4.1780   -1.1022   -0.1341 O   0  0  0  0  0  0  0  0  0  0  0  0
    4.2848   -1.9961   -1.2442 C   0  0  3  0  0  0  0  0  0  0  0  0
    5.7017   -2.2717   -1.4239 O   0  0  0  0  0  0  0  0  0  0  0  0
    5.9667   -3.2965   -2.3929 C   0  0  3  0  0  0  0  0  0  0  0  0
    5.6587   -2.8990   -3.8464 C   0  0  3  0  0  0  0  0  0  0  0  0
    6.6033   -1.9592   -4.4540 N   0  0  0  0  0  0  0  0  0  0  0  0
    5.5652   -4.2174   -4.6278 C   0  0  0  0  0  0  0  0  0  0  0  0
    6.8204   -5.1069   -4.4890 C   0  0  3  0  0  0  0  0  0  0  0  0
    7.2696   -5.3178   -2.9981 C   0  0  3  0  0  0  0  0  0  0  0  0
    7.3553   -3.9567   -2.2389 C   0  0  3  0  0  0  0  0  0  0  0  0
    7.5517   -4.1800   -0.8342 O   0  0  0  0  0  0  0  0  0  0  0  0
    8.4569   -6.1488   -2.9590 O   0  0  0  0  0  0  0  0  0  0  0  0
    8.7625   -6.6647   -1.6490 C   0  0  3  0  0  0  0  0  0  0  0  0
    9.7287   -5.8861   -0.9712 O   0  0  0  0  0  0  0  0  0  0  0  0
   10.9769   -5.7720   -1.6721 C   0  0  3  0  0  0  0  0  0  0  0  0
   11.8575   -4.8430   -0.7915 C   0  0  0  0  0  0  0  0  0  0  0  0
   13.2315   -4.6842   -1.2582 N   0  0  0  0  0  0  0  0  0  0  0  0
   11.6102   -7.1682   -1.9292 C   0  0  3  0  0  0  0  0  0  0  0  0
   10.6235   -8.2120   -2.4333 C   0  0  0  0  0  0  0  0  0  0  0  0
    9.2788   -8.1355   -1.6877 C   0  0  3  0  0  0  0  0  0  0  0  0
    8.3399   -9.1251   -2.2454 N   0  0  0  0  0  0  0  0  0  0  0  0
   12.2477   -7.6778   -0.7528 O   0  0  0  0  0  0  0  0  0  0  0  0
    7.8917   -4.5287   -5.3150 N   0  0  0  0  0  0  0  0  0  0  0  0
    3.4324   -3.2889   -1.0013 C   0  0  3  0  0  0  0  0  0  0  0  0
    2.0059   -3.0192   -0.4677 C   0  0  3  0  0  0  0  0  0  0  0  0
    2.1405   -2.0989    0.7748 C   0  0  3  0  0  0  0  0  0  0  0  0
    0.9008   -1.9205    1.4857 O   0  0  0  0  0  0  0  0  0  0  0  0
    1.0072   -1.0313    2.6097 C   0  0  3  0  0  0  0  0  0  0  0  0
    1.9750   -1.4432    3.5736 O   0  0  0  0  0  0  0  0  0  0  0  0
    1.5312   -2.4893    4.4528 C   0  0  3  0  0  0  0  0  0  0  0  0
    2.7020   -2.8659    5.3805 C   0  0  0  0  0  0  0  0  0  0  0  0
    3.2645   -1.7279    6.0346 O   0  0  0  0  0  0  0  0  0  0  0  0
    0.2741   -2.0416    5.2280 C   0  0  3  0  0  0  0  0  0  0  0  0
   -0.8470   -1.7405    4.2119 C   0  0  3  0  0  0  0  0  0  0  0  0
   -0.3861   -0.7045    3.1811 C   0  0  3  0  0  0  0  0  0  0  0  0
   -1.3309   -0.5471    2.1088 O   0  0  0  0  0  0  0  0  0  0  0  0
   -1.9848   -1.2420    4.9364 O   0  0  0  0  0  0  0  0  0  0  0  0
    0.4826   -0.8471    6.0912 N   0  0  0  0  0  0  0  0  0  0  0  0
    1.3296   -4.3124   -0.1967 N   0  0  0  0  0  0  0  0  0  0  0  0
    4.1015   -4.1623   -0.0574 O   0  0  0  0  0  0  0  0  0  0  0  0
    0.2958    1.0219   -1.1294 H   0  0  0  0  0  0  0  0  0  0  0  0
    0.3486    0.3379    0.3454 H   0  0  0  0  0  0  0  0  0  0  0  0
    2.5301    1.0398   -0.8182 H   0  0  0  0  0  0  0  0  0  0  0  0
    2.2206   -0.3624   -1.7917 H   0  0  0  0  0  0  0  0  0  0  0  0
    2.9755   -0.1311    1.1383 H   0  0  0  0  0  0  0  0  0  0  0  0
    3.9380   -1.4677   -2.1343 H   0  0  0  0  0  0  0  0  0  0  0  0
    5.3034   -4.1178   -2.1348 H   0  0  0  0  0  0  0  0  0  0  0  0
    4.6856   -2.4026   -3.8916 H   0  0  0  0  0  0  0  0  0  0  0  0
    7.3828   -2.4875   -4.8715 H   0  0  0  0  0  0  0  0  0  0  0  0
    7.0200   -1.3467   -3.7519 H   0  0  0  0  0  0  0  0  0  0  0  0
    5.3300   -4.0162   -5.6803 H   0  0  0  0  0  0  0  0  0  0  0  0
    4.7007   -4.7749   -4.2376 H   0  0  0  0  0  0  0  0  0  0  0  0
    6.5883   -6.0929   -4.9071 H   0  0  0  0  0  0  0  0  0  0  0  0
    6.4788   -5.9146   -2.5240 H   0  0  0  0  0  0  0  0  0  0  0  0
    8.1814   -3.3314   -2.5961 H   0  0  0  0  0  0  0  0  0  0  0  0
    7.1972   -3.3913   -0.3825 H   0  0  0  0  0  0  0  0  0  0  0  0
    7.8483   -6.6787   -1.0317 H   0  0  0  0  0  0  0  0  0  0  0  0
   10.7936   -5.2754   -2.6382 H   0  0  0  0  0  0  0  0  0  0  0  0
   11.8649   -5.2250    0.2372 H   0  0  0  0  0  0  0  0  0  0  0  0
   11.3766   -3.8632   -0.7401 H   0  0  0  0  0  0  0  0  0  0  0  0
   13.6775   -5.6060   -1.2415 H   0  0  0  0  0  0  0  0  0  0  0  0
   13.7382   -4.1357   -0.5650 H   0  0  0  0  0  0  0  0  0  0  0  0
   12.4131   -7.0572   -2.6704 H   0  0  0  0  0  0  0  0  0  0  0  0
   11.0458   -9.2154   -2.3013 H   0  0  0  0  0  0  0  0  0  0  0  0
   10.4515   -8.0645   -3.5094 H   0  0  0  0  0  0  0  0  0  0  0  0
    9.4782   -8.4360   -0.6500 H   0  0  0  0  0  0  0  0  0  0  0  0
    7.9130   -8.7321   -3.0840 H   0  0  0  0  0  0  0  0  0  0  0  0
    7.5823   -9.2813   -1.5806 H   0  0  0  0  0  0  0  0  0  0  0  0
   11.5819   -7.6759   -0.0316 H   0  0  0  0  0  0  0  0  0  0  0  0
    8.7290   -5.1017   -5.1892 H   0  0  0  0  0  0  0  0  0  0  0  0
    7.6346   -4.6253   -6.3011 H   0  0  0  0  0  0  0  0  0  0  0  0
    3.3433   -3.8542   -1.9361 H   0  0  0  0  0  0  0  0  0  0  0  0
    1.4104   -2.5243   -1.2432 H   0  0  0  0  0  0  0  0  0  0  0  0
    2.8171   -2.6038    1.4770 H   0  0  0  0  0  0  0  0  0  0  0  0
    1.3532   -0.0686    2.2325 H   0  0  0  0  0  0  0  0  0  0  0  0
    1.2851   -3.3776    3.8561 H   0  0  0  0  0  0  0  0  0  0  0  0
    3.5067   -3.3361    4.8056 H   0  0  0  0  0  0  0  0  0  0  0  0
    2.3774   -3.5695    6.1531 H   0  0  0  0  0  0  0  0  0  0  0  0
    3.7977   -1.2658    5.3602 H   0  0  0  0  0  0  0  0  0  0  0  0
   -0.0665   -2.8458    5.8900 H   0  0  0  0  0  0  0  0  0  0  0  0
   -1.1728   -2.6576    3.7092 H   0  0  0  0  0  0  0  0  0  0  0  0
   -0.3367    0.2691    3.6803 H   0  0  0  0  0  0  0  0  0  0  0  0
   -1.2191   -1.3274    1.5282 H   0  0  0  0  0  0  0  0  0  0  0  0
   -1.6030   -0.6746    5.6362 H   0  0  0  0  0  0  0  0  0  0  0  0
    1.0728   -0.1804    5.5843 H   0  0  0  0  0  0  0  0  0  0  0  0
    1.1071   -1.1266    6.8586 H   0  0  0  0  0  0  0  0  0  0  0  0
    1.9874   -4.8936    0.3324 H   0  0  0  0  0  0  0  0  0  0  0  0
    1.2064   -4.8128   -1.0776 H   0  0  0  0  0  0  0  0  0  0  0  0
    4.6997   -3.6004    0.4740 H   0  0  0  0  0  0  0  0  0  0  0  0
  1  2  1  0  0  0  0
  1 44  1  0  0  0  0
  1 45  1  0  0  0  0
  2  3  1  0  0  0  0
  2 46  1  0  0  0  0
  2 47  1  0  0  0  0
  3  4  1  0  0  0  0
  3 29  1  0  0  0  0
  3 48  1  0  0  0  0
  4  5  1  0  0  0  0
  5  6  1  0  0  0  0
  5 27  1  0  0  0  0
  5 49  1  0  0  0  0
  6  7  1  0  0  0  0
  7  8  1  0  0  0  0
  7 13  1  0  0  0  0
  7 50  1  0  0  0  0
  8  9  1  0  0  0  0
  8 10  1  0  0  0  0
  8 51  1  0  0  0  0
  9 52  1  0  0  0  0
  9 53  1  0  0  0  0
 10 11  1  0  0  0  0
 10 54  1  0  0  0  0
 10 55  1  0  0  0  0
 11 12  1  0  0  0  0
 11 26  1  0  0  0  0
 11 56  1  0  0  0  0
 12 13  1  0  0  0  0
 12 15  1  0  0  0  0
 12 57  1  0  0  0  0
 13 14  1  0  0  0  0
 13 58  1  0  0  0  0
 14 59  1  0  0  0  0
 15 16  1  0  0  0  0
 16 17  1  0  0  0  0
 16 23  1  0  0  0  0
 16 60  1  0  0  0  0
 17 18  1  0  0  0  0
 18 19  1  0  0  0  0
 18 21  1  0  0  0  0
 18 61  1  0  0  0  0
 19 20  1  0  0  0  0
 19 62  1  0  0  0  0
 19 63  1  0  0  0  0
 20 64  1  0  0  0  0
 20 65  1  0  0  0  0
 21 22  1  0  0  0  0
 21 25  1  0  0  0  0
 21 66  1  0  0  0  0
 22 23  1  0  0  0  0
 22 67  1  0  0  0  0
 22 68  1  0  0  0  0
 23 24  1  0  0  0  0
 23 69  1  0  0  0  0
 24 70  1  0  0  0  0
 24 71  1  0  0  0  0
 25 72  1  0  0  0  0
 26 73  1  0  0  0  0
 26 74  1  0  0  0  0
 27 28  1  0  0  0  0
 27 43  1  0  0  0  0
 27 75  1  0  0  0  0
 28 29  1  0  0  0  0
 28 42  1  0  0  0  0
 28 76  1  0  0  0  0
 29 30  1  0  0  0  0
 29 77  1  0  0  0  0
 30 31  1  0  0  0  0
 31 32  1  0  0  0  0
 31 38  1  0  0  0  0
 31 78  1  0  0  0  0
 32 33  1  0  0  0  0
 33 34  1  0  0  0  0
 33 36  1  0  0  0  0
 33 79  1  0  0  0  0
 34 35  1  0  0  0  0
 34 80  1  0  0  0  0
 34 81  1  0  0  0  0
 35 82  1  0  0  0  0
 36 37  1  0  0  0  0
 36 41  1  0  0  0  0
 36 83  1  0  0  0  0
 37 38  1  0  0  0  0
 37 40  1  0  0  0  0
 37 84  1  0  0  0  0
 38 39  1  0  0  0  0
 38 85  1  0  0  0  0
 39 86  1  0  0  0  0
 40 87  1  0  0  0  0
 41 88  1  0  0  0  0
 41 89  1  0  0  0  0
 42 90  1  0  0  0  0
 42 91  1  0  0  0  0
 43 92  1  0  0  0  0
M  END
$$$$
Target_lig_1157
 OpenBabel04172516583D

 92 95  0  0  1  0  0  0  0  0999 V2000
    1.9897    1.5107    0.5849 N   0  0  0  0  0  0  0  0  0  0  0  0
    1.6998    0.0872    0.8427 C   0  0  0  0  0  0  0  0  0  0  0  0
    2.9335   -0.8706    0.7433 C   0  0  3  0  0  0  0  0  0  0  0  0
    2.5489   -2.2499    0.8761 O   0  0  0  0  0  0  0  0  0  0  0  0
    2.7589   -2.9826    2.0868 C   0  0  3  0  0  0  0  0  0  0  0  0
    3.3601   -4.2565    1.7505 O   0  0  0  0  0  0  0  0  0  0  0  0
    2.5066   -5.3441    1.3131 C   0  0  3  0  0  0  0  0  0  0  0  0
    3.3486   -6.6476    1.4976 C   0  0  3  0  0  0  0  0  0  0  0  0
    2.6173   -7.9144    1.3737 N   0  0  0  0  0  0  0  0  0  0  0  0
    4.5624   -6.6379    0.5521 C   0  0  0  0  0  0  0  0  0  0  0  0
    4.2720   -6.2993   -0.9217 C   0  0  3  0  0  0  0  0  0  0  0  0
    3.3317   -5.0582   -1.0924 C   0  0  3  0  0  0  0  0  0  0  0  0
    2.0817   -5.2201   -0.1718 C   0  0  3  0  0  0  0  0  0  0  0  0
    1.1275   -4.1617   -0.3083 O   0  0  0  0  0  0  0  0  0  0  0  0
    2.9126   -4.8399   -2.4636 O   0  0  0  0  0  0  0  0  0  0  0  0
    3.9947   -4.6833   -3.3988 C   0  0  3  0  0  0  0  0  0  0  0  0
    4.6887   -3.4338   -3.2836 O   0  0  0  0  0  0  0  0  0  0  0  0
    3.9546   -2.2779   -3.7289 C   0  0  3  0  0  0  0  0  0  0  0  0
    4.8872   -1.0338   -3.6871 C   0  0  0  0  0  0  0  0  0  0  0  0
    5.2608   -0.5990   -2.3331 N   0  0  0  0  0  0  0  0  0  0  0  0
    3.4529   -2.4551   -5.1787 C   0  0  3  0  0  0  0  0  0  0  0  0
    2.6569   -3.7434   -5.3395 C   0  0  0  0  0  0  0  0  0  0  0  0
    3.4916   -4.9285   -4.8593 C   0  0  3  0  0  0  0  0  0  0  0  0
    2.7248   -6.1740   -5.0426 N   0  0  0  0  0  0  0  0  0  0  0  0
    4.5490   -2.4675   -6.1045 O   0  0  0  0  0  0  0  0  0  0  0  0
    3.8269   -7.4794   -1.6876 N   0  0  0  0  0  0  0  0  0  0  0  0
    3.7003   -2.3262    3.1701 C   0  0  3  0  0  0  0  0  0  0  0  0
    3.7157   -0.7936    3.0563 C   0  0  3  0  0  0  0  0  0  0  0  0
    4.1340   -0.4519    1.6325 C   0  0  3  0  0  0  0  0  0  0  0  0
    4.4501    0.9357    1.3979 O   0  0  0  0  0  0  0  0  0  0  0  0
    5.8282    1.3040    1.6022 C   0  0  3  0  0  0  0  0  0  0  0  0
    6.0936    1.7056    2.9452 O   0  0  0  0  0  0  0  0  0  0  0  0
    5.2796    2.8156    3.3765 C   0  0  3  0  0  0  0  0  0  0  0  0
    5.6021    3.0956    4.8521 C   0  0  0  0  0  0  0  0  0  0  0  0
    5.0723    2.0824    5.7096 O   0  0  0  0  0  0  0  0  0  0  0  0
    5.5441    4.0492    2.4984 C   0  0  3  0  0  0  0  0  0  0  0  0
    5.2989    3.7080    1.0106 C   0  0  3  0  0  0  0  0  0  0  0  0
    6.1612    2.4687    0.6322 C   0  0  3  0  0  0  0  0  0  0  0  0
    5.9473    2.0503   -0.7205 O   0  0  0  0  0  0  0  0  0  0  0  0
    5.5450    4.8714    0.1379 N   0  0  0  0  0  0  0  0  0  0  0  0
    6.8889    4.5261    2.6642 O   0  0  0  0  0  0  0  0  0  0  0  0
    4.5729   -0.2298    4.0536 O   0  0  0  0  0  0  0  0  0  0  0  0
    5.1110   -2.8271    3.1367 N   0  0  0  0  0  0  0  0  0  0  0  0
    1.7260    2.0626    1.4000 H   0  0  0  0  0  0  0  0  0  0  0  0
    2.9998    1.6322    0.5353 H   0  0  0  0  0  0  0  0  0  0  0  0
    0.9536   -0.2218    0.1090 H   0  0  0  0  0  0  0  0  0  0  0  0
    1.2097   -0.0052    1.8142 H   0  0  0  0  0  0  0  0  0  0  0  0
    3.2497   -0.7861   -0.2985 H   0  0  0  0  0  0  0  0  0  0  0  0
    1.7807   -3.1628    2.5529 H   0  0  0  0  0  0  0  0  0  0  0  0
    1.6327   -5.3778    1.9751 H   0  0  0  0  0  0  0  0  0  0  0  0
    3.7542   -6.6396    2.5180 H   0  0  0  0  0  0  0  0  0  0  0  0
    2.2084   -8.0453    0.4537 H   0  0  0  0  0  0  0  0  0  0  0  0
    1.8523   -7.9641    2.0462 H   0  0  0  0  0  0  0  0  0  0  0  0
    5.1048   -7.5914    0.6215 H   0  0  0  0  0  0  0  0  0  0  0  0
    5.2732   -5.8876    0.9270 H   0  0  0  0  0  0  0  0  0  0  0  0
    5.2469   -6.0365   -1.3525 H   0  0  0  0  0  0  0  0  0  0  0  0
    3.8638   -4.1491   -0.7884 H   0  0  0  0  0  0  0  0  0  0  0  0
    1.5284   -6.1192   -0.4704 H   0  0  0  0  0  0  0  0  0  0  0  0
    1.6001   -3.3273   -0.1143 H   0  0  0  0  0  0  0  0  0  0  0  0
    4.7440   -5.4561   -3.2352 H   0  0  0  0  0  0  0  0  0  0  0  0
    3.1019   -2.1271   -3.0552 H   0  0  0  0  0  0  0  0  0  0  0  0
    4.3933   -0.1898   -4.1834 H   0  0  0  0  0  0  0  0  0  0  0  0
    5.8175   -1.2425   -4.2271 H   0  0  0  0  0  0  0  0  0  0  0  0
    4.4143   -0.3283   -1.8510 H   0  0  0  0  0  0  0  0  0  0  0  0
    5.8207    0.2547   -2.4167 H   0  0  0  0  0  0  0  0  0  0  0  0
    2.8226   -1.6041   -5.4584 H   0  0  0  0  0  0  0  0  0  0  0  0
    2.3986   -3.8828   -6.3974 H   0  0  0  0  0  0  0  0  0  0  0  0
    1.7225   -3.6737   -4.7733 H   0  0  0  0  0  0  0  0  0  0  0  0
    4.3765   -4.9958   -5.5053 H   0  0  0  0  0  0  0  0  0  0  0  0
    2.1508   -6.2982   -4.2033 H   0  0  0  0  0  0  0  0  0  0  0  0
    3.3748   -6.9623   -5.0195 H   0  0  0  0  0  0  0  0  0  0  0  0
    5.2762   -2.9776   -5.7030 H   0  0  0  0  0  0  0  0  0  0  0  0
    2.8825   -7.7584   -1.4398 H   0  0  0  0  0  0  0  0  0  0  0  0
    4.4285   -8.2769   -1.4753 H   0  0  0  0  0  0  0  0  0  0  0  0
    3.3325   -2.6128    4.1626 H   0  0  0  0  0  0  0  0  0  0  0  0
    2.7267   -0.3933    3.2871 H   0  0  0  0  0  0  0  0  0  0  0  0
    4.9968   -1.0435    1.2964 H   0  0  0  0  0  0  0  0  0  0  0  0
    6.4816    0.4609    1.3520 H   0  0  0  0  0  0  0  0  0  0  0  0
    4.2255    2.5195    3.3022 H   0  0  0  0  0  0  0  0  0  0  0  0
    5.1611    4.0441    5.1711 H   0  0  0  0  0  0  0  0  0  0  0  0
    6.6840    3.1382    5.0188 H   0  0  0  0  0  0  0  0  0  0  0  0
    4.8020    1.3171    5.1572 H   0  0  0  0  0  0  0  0  0  0  0  0
    4.8785    4.8684    2.8018 H   0  0  0  0  0  0  0  0  0  0  0  0
    4.2399    3.4551    0.8740 H   0  0  0  0  0  0  0  0  0  0  0  0
    7.2221    2.7231    0.7245 H   0  0  0  0  0  0  0  0  0  0  0  0
    5.0201    1.7646   -0.7753 H   0  0  0  0  0  0  0  0  0  0  0  0
    6.5077    5.1776    0.2864 H   0  0  0  0  0  0  0  0  0  0  0  0
    4.9733    5.6609    0.4469 H   0  0  0  0  0  0  0  0  0  0  0  0
    7.4741    3.7523    2.7701 H   0  0  0  0  0  0  0  0  0  0  0  0
    5.4144   -0.7259    3.9819 H   0  0  0  0  0  0  0  0  0  0  0  0
    5.3865   -2.9402    2.1559 H   0  0  0  0  0  0  0  0  0  0  0  0
    5.0856   -3.8000    3.4536 H   0  0  0  0  0  0  0  0  0  0  0  0
  1  2  1  0  0  0  0
  1 44  1  0  0  0  0
  1 45  1  0  0  0  0
  2  3  1  0  0  0  0
  2 46  1  0  0  0  0
  2 47  1  0  0  0  0
  3  4  1  0  0  0  0
  3 29  1  0  0  0  0
  3 48  1  0  0  0  0
  4  5  1  0  0  0  0
  5  6  1  0  0  0  0
  5 27  1  0  0  0  0
  5 49  1  0  0  0  0
  6  7  1  0  0  0  0
  7  8  1  0  0  0  0
  7 13  1  0  0  0  0
  7 50  1  0  0  0  0
  8  9  1  0  0  0  0
  8 10  1  0  0  0  0
  8 51  1  0  0  0  0
  9 52  1  0  0  0  0
  9 53  1  0  0  0  0
 10 11  1  0  0  0  0
 10 54  1  0  0  0  0
 10 55  1  0  0  0  0
 11 12  1  0  0  0  0
 11 26  1  0  0  0  0
 11 56  1  0  0  0  0
 12 13  1  0  0  0  0
 12 15  1  0  0  0  0
 12 57  1  0  0  0  0
 13 14  1  0  0  0  0
 13 58  1  0  0  0  0
 14 59  1  0  0  0  0
 15 16  1  0  0  0  0
 16 17  1  0  0  0  0
 16 23  1  0  0  0  0
 16 60  1  0  0  0  0
 17 18  1  0  0  0  0
 18 19  1  0  0  0  0
 18 21  1  0  0  0  0
 18 61  1  0  0  0  0
 19 20  1  0  0  0  0
 19 62  1  0  0  0  0
 19 63  1  0  0  0  0
 20 64  1  0  0  0  0
 20 65  1  0  0  0  0
 21 22  1  0  0  0  0
 21 25  1  0  0  0  0
 21 66  1  0  0  0  0
 22 23  1  0  0  0  0
 22 67  1  0  0  0  0
 22 68  1  0  0  0  0
 23 24  1  0  0  0  0
 23 69  1  0  0  0  0
 24 70  1  0  0  0  0
 24 71  1  0  0  0  0
 25 72  1  0  0  0  0
 26 73  1  0  0  0  0
 26 74  1  0  0  0  0
 27 28  1  0  0  0  0
 27 43  1  0  0  0  0
 27 75  1  0  0  0  0
 28 29  1  0  0  0  0
 28 42  1  0  0  0  0
 28 76  1  0  0  0  0
 29 30  1  0  0  0  0
 29 77  1  0  0  0  0
 30 31  1  0  0  0  0
 31 32  1  0  0  0  0
 31 38  1  0  0  0  0
 31 78  1  0  0  0  0
 32 33  1  0  0  0  0
 33 34  1  0  0  0  0
 33 36  1  0  0  0  0
 33 79  1  0  0  0  0
 34 35  1  0  0  0  0
 34 80  1  0  0  0  0
 34 81  1  0  0  0  0
 35 82  1  0  0  0  0
 36 37  1  0  0  0  0
 36 41  1  0  0  0  0
 36 83  1  0  0  0  0
 37 38  1  0  0  0  0
 37 40  1  0  0  0  0
 37 84  1  0  0  0  0
 38 39  1  0  0  0  0
 38 85  1  0  0  0  0
 39 86  1  0  0  0  0
 40 87  1  0  0  0  0
 40 88  1  0  0  0  0
 41 89  1  0  0  0  0
 42 90  1  0  0  0  0
 43 91  1  0  0  0  0
 43 92  1  0  0  0  0
M  END
$$$$
Target_lig_1158
 OpenBabel04172516583D

 70 72  0  0  1  0  0  0  0  0999 V2000
    5.3979    8.5460    0.6957 N   0  0  0  0  0  0  0  0  0  0  0  0
    5.9661    7.3213    1.2693 C   0  0  0  0  0  0  0  0  0  0  0  0
    6.0682    6.1430    0.2664 C   0  0  3  0  0  0  0  0  0  0  0  0
    4.7944    5.7439   -0.3324 O   0  0  0  0  0  0  0  0  0  0  0  0
    4.1814    4.4980    0.0272 C   0  0  3  0  0  0  0  0  0  0  0  0
    3.2994    3.9561   -1.0067 O   0  0  0  0  0  0  0  0  0  0  0  0
    2.0626    4.6256   -1.3413 C   0  0  3  0  0  0  0  0  0  0  0  0
    1.0585    4.6921   -0.1614 C   0  0  3  0  0  0  0  0  0  0  0  0
   -0.0556    5.6242   -0.3690 N   0  0  0  0  0  0  0  0  0  0  0  0
    0.5256    3.2961    0.1794 C   0  0  0  0  0  0  0  0  0  0  0  0
   -0.0615    2.4887   -0.9819 C   0  0  3  0  0  0  0  0  0  0  0  0
    0.9085    2.4033   -2.2036 C   0  0  3  0  0  0  0  0  0  0  0  0
    1.4021    3.8561   -2.5595 C   0  0  3  0  0  0  0  0  0  0  0  0
    2.3326    3.8140   -3.6515 O   0  0  0  0  0  0  0  0  0  0  0  0
    0.2784    1.7358   -3.3542 O   0  0  0  0  0  0  0  0  0  0  0  0
   -0.1888    0.3898   -3.0862 C   0  0  3  0  0  0  0  0  0  0  0  0
    0.8653   -0.5770   -3.0279 O   0  0  0  0  0  0  0  0  0  0  0  0
    1.4718   -0.8905   -4.2941 C   0  0  3  0  0  0  0  0  0  0  0  0
    2.5218   -2.0180   -4.0838 C   0  0  0  0  0  0  0  0  0  0  0  0
    3.7052   -1.6037   -3.3224 N   0  0  0  0  0  0  0  0  0  0  0  0
    0.4555   -1.3377   -5.3716 C   0  0  3  0  0  0  0  0  0  0  0  0
   -0.7046   -0.3320   -5.4767 C   0  0  3  0  0  0  0  0  0  0  0  0
   -1.2948   -0.0800   -4.0728 C   0  0  3  0  0  0  0  0  0  0  0  0
   -2.3987    0.8303   -4.1187 O   0  0  0  0  0  0  0  0  0  0  0  0
   -1.7250   -0.7790   -6.4525 N   0  0  0  0  0  0  0  0  0  0  0  0
   -0.0117   -2.6774   -5.1458 O   0  0  0  0  0  0  0  0  0  0  0  0
   -1.4105    2.9301   -1.3728 N   0  0  0  0  0  0  0  0  0  0  0  0
    5.2323    3.3635    0.2315 C   0  0  3  0  0  0  0  0  0  0  0  0
    6.2701    3.7751    1.2561 C   0  0  0  0  0  0  0  0  0  0  0  0
    7.0055    5.0194    0.8050 C   0  0  3  0  0  0  0  0  0  0  0  0
    7.8896    5.4506    1.8467 O   0  0  0  0  0  0  0  0  0  0  0  0
    5.8896    2.9740   -1.0402 N   0  0  0  0  0  0  0  0  0  0  0  0
    5.3013    9.2575    1.4185 H   0  0  0  0  0  0  0  0  0  0  0  0
    4.4684    8.3500    0.3263 H   0  0  0  0  0  0  0  0  0  0  0  0
    5.3689    7.0340    2.1447 H   0  0  0  0  0  0  0  0  0  0  0  0
    6.9632    7.6044    1.6292 H   0  0  0  0  0  0  0  0  0  0  0  0
    6.6109    6.5685   -0.5875 H   0  0  0  0  0  0  0  0  0  0  0  0
    3.6234    4.6306    0.9595 H   0  0  0  0  0  0  0  0  0  0  0  0
    2.3348    5.6360   -1.6684 H   0  0  0  0  0  0  0  0  0  0  0  0
    1.5758    5.0553    0.7312 H   0  0  0  0  0  0  0  0  0  0  0  0
   -0.7047    5.2827   -1.0751 H   0  0  0  0  0  0  0  0  0  0  0  0
    0.2843    6.5298   -0.6905 H   0  0  0  0  0  0  0  0  0  0  0  0
   -0.2170    3.3606    0.9872 H   0  0  0  0  0  0  0  0  0  0  0  0
    1.3527    2.7081    0.5973 H   0  0  0  0  0  0  0  0  0  0  0  0
   -0.1984    1.4801   -0.5845 H   0  0  0  0  0  0  0  0  0  0  0  0
    1.7895    1.8018   -1.9485 H   0  0  0  0  0  0  0  0  0  0  0  0
    0.5508    4.4385   -2.9321 H   0  0  0  0  0  0  0  0  0  0  0  0
    3.1911    3.5679   -3.2595 H   0  0  0  0  0  0  0  0  0  0  0  0
   -0.6773    0.3635   -2.1129 H   0  0  0  0  0  0  0  0  0  0  0  0
    1.9822    0.0127   -4.6478 H   0  0  0  0  0  0  0  0  0  0  0  0
    2.8607   -2.3827   -5.0605 H   0  0  0  0  0  0  0  0  0  0  0  0
    2.0676   -2.8627   -3.5503 H   0  0  0  0  0  0  0  0  0  0  0  0
    4.0550   -0.7154   -3.6773 H   0  0  0  0  0  0  0  0  0  0  0  0
    4.4459   -2.2879   -3.4704 H   0  0  0  0  0  0  0  0  0  0  0  0
    0.9778   -1.3801   -6.3352 H   0  0  0  0  0  0  0  0  0  0  0  0
   -0.3169    0.6223   -5.8578 H   0  0  0  0  0  0  0  0  0  0  0  0
   -1.7024   -1.0252   -3.6906 H   0  0  0  0  0  0  0  0  0  0  0  0
   -2.0821    1.6240   -4.5849 H   0  0  0  0  0  0  0  0  0  0  0  0
   -2.1458   -1.6591   -6.1588 H   0  0  0  0  0  0  0  0  0  0  0  0
   -1.2764   -0.9775   -7.3467 H   0  0  0  0  0  0  0  0  0  0  0  0
   -0.8903   -2.6566   -4.7335 H   0  0  0  0  0  0  0  0  0  0  0  0
   -1.4190    3.5602   -2.1662 H   0  0  0  0  0  0  0  0  0  0  0  0
   -1.9261    3.3350   -0.5942 H   0  0  0  0  0  0  0  0  0  0  0  0
    4.7122    2.4695    0.5944 H   0  0  0  0  0  0  0  0  0  0  0  0
    6.9944    2.9675    1.4275 H   0  0  0  0  0  0  0  0  0  0  0  0
    5.7942    3.9464    2.2307 H   0  0  0  0  0  0  0  0  0  0  0  0
    7.6722    4.7413   -0.0206 H   0  0  0  0  0  0  0  0  0  0  0  0
    7.4324    5.3759    2.7010 H   0  0  0  0  0  0  0  0  0  0  0  0
    6.1881    3.8231   -1.5270 H   0  0  0  0  0  0  0  0  0  0  0  0
    5.1599    2.6001   -1.6456 H   0  0  0  0  0  0  0  0  0  0  0  0
  1  2  1  0  0  0  0
  1 33  1  0  0  0  0
  1 34  1  0  0  0  0
  2  3  1  0  0  0  0
  2 35  1  0  0  0  0
  2 36  1  0  0  0  0
  3  4  1  0  0  0  0
  3 30  1  0  0  0  0
  3 37  1  0  0  0  0
  4  5  1  0  0  0  0
  5  6  1  0  0  0  0
  5 28  1  0  0  0  0
  5 38  1  0  0  0  0
  6  7  1  0  0  0  0
  7  8  1  0  0  0  0
  7 13  1  0  0  0  0
  7 39  1  0  0  0  0
  8  9  1  0  0  0  0
  8 10  1  0  0  0  0
  8 40  1  0  0  0  0
  9 41  1  0  0  0  0
  9 42  1  0  0  0  0
 10 11  1  0  0  0  0
 10 43  1  0  0  0  0
 10 44  1  0  0  0  0
 11 12  1  0  0  0  0
 11 27  1  0  0  0  0
 11 45  1  0  0  0  0
 12 13  1  0  0  0  0
 12 15  1  0  0  0  0
 12 46  1  0  0  0  0
 13 14  1  0  0  0  0
 13 47  1  0  0  0  0
 14 48  1  0  0  0  0
 15 16  1  0  0  0  0
 16 17  1  0  0  0  0
 16 23  1  0  0  0  0
 16 49  1  0  0  0  0
 17 18  1  0  0  0  0
 18 19  1  0  0  0  0
 18 21  1  0  0  0  0
 18 50  1  0  0  0  0
 19 20  1  0  0  0  0
 19 51  1  0  0  0  0
 19 52  1  0  0  0  0
 20 53  1  0  0  0  0
 20 54  1  0  0  0  0
 21 22  1  0  0  0  0
 21 26  1  0  0  0  0
 21 55  1  0  0  0  0
 22 23  1  0  0  0  0
 22 25  1  0  0  0  0
 22 56  1  0  0  0  0
 23 24  1  0  0  0  0
 23 57  1  0  0  0  0
 24 58  1  0  0  0  0
 25 59  1  0  0  0  0
 25 60  1  0  0  0  0
 26 61  1  0  0  0  0
 27 62  1  0  0  0  0
 27 63  1  0  0  0  0
 28 29  1  0  0  0  0
 28 32  1  0  0  0  0
 28 64  1  0  0  0  0
 29 30  1  0  0  0  0
 29 65  1  0  0  0  0
 29 66  1  0  0  0  0
 30 31  1  0  0  0  0
 30 67  1  0  0  0  0
 31 68  1  0  0  0  0
 32 69  1  0  0  0  0
 32 70  1  0  0  0  0
M  END
$$$$
Target_lig_1159
 OpenBabel04172516583D

 91 94  0  0  1  0  0  0  0  0999 V2000
    1.2157    0.3890    0.2274 N   0  0  0  0  0  0  0  0  0  0  0  0
    2.4248   -0.3596    0.5661 C   0  0  0  0  0  0  0  0  0  0  0  0
    3.0822    0.1160    1.8925 C   0  0  3  0  0  0  0  0  0  0  0  0
    3.4039    1.5436    1.8549 O   0  0  0  0  0  0  0  0  0  0  0  0
    4.6251    1.8622    1.1853 C   0  0  3  0  0  0  0  0  0  0  0  0
    4.9666    3.2687    1.1671 O   0  0  0  0  0  0  0  0  0  0  0  0
    4.1377    4.1454    0.3602 C   0  0  3  0  0  0  0  0  0  0  0  0
    4.0700    3.7385   -1.1416 C   0  0  3  0  0  0  0  0  0  0  0  0
    2.8027    4.1224   -1.7903 N   0  0  0  0  0  0  0  0  0  0  0  0
    5.2679    4.2519   -1.9543 C   0  0  0  0  0  0  0  0  0  0  0  0
    5.6445    5.7314   -1.7692 C   0  0  3  0  0  0  0  0  0  0  0  0
    5.9115    6.0320   -0.2610 C   0  0  3  0  0  0  0  0  0  0  0  0
    4.6190    5.6391    0.5483 C   0  0  3  0  0  0  0  0  0  0  0  0
    4.7823    5.9085    1.9470 O   0  0  0  0  0  0  0  0  0  0  0  0
    6.3203    7.4259   -0.0188 O   0  0  0  0  0  0  0  0  0  0  0  0
    7.4591    7.8630   -0.7921 C   0  0  3  0  0  0  0  0  0  0  0  0
    8.6675    7.1405   -0.4961 O   0  0  0  0  0  0  0  0  0  0  0  0
    9.3797    7.5997    0.6690 C   0  0  3  0  0  0  0  0  0  0  0  0
   10.6341    6.7215    0.8816 C   0  0  0  0  0  0  0  0  0  0  0  0
   10.3263    5.3418    1.2645 N   0  0  0  0  0  0  0  0  0  0  0  0
    9.8186    9.0611    0.4650 C   0  0  3  0  0  0  0  0  0  0  0  0
    8.5846    9.9431    0.3182 C   0  0  0  0  0  0  0  0  0  0  0  0
    7.6833    9.4259   -0.8062 C   0  0  3  0  0  0  0  0  0  0  0  0
    6.4650   10.2522   -0.8556 N   0  0  0  0  0  0  0  0  0  0  0  0
   10.6509    9.1964   -0.6943 O   0  0  0  0  0  0  0  0  0  0  0  0
    4.6957    6.6664   -2.3941 N   0  0  0  0  0  0  0  0  0  0  0  0
    5.7633    1.1258    1.9159 C   0  0  3  0  0  0  0  0  0  0  0  0
    5.5885   -0.3732    1.6032 C   0  0  3  0  0  0  0  0  0  0  0  0
    4.2759   -0.8213    2.3026 C   0  0  3  0  0  0  0  0  0  0  0  0
    3.9436   -2.1911    2.0344 O   0  0  0  0  0  0  0  0  0  0  0  0
    6.7149   -1.2301    1.9392 O   0  0  0  0  0  0  0  0  0  0  0  0
    7.9609   -0.7749    1.3592 C   0  0  3  0  0  0  0  0  0  0  0  0
    7.9229   -0.7390   -0.0743 O   0  0  0  0  0  0  0  0  0  0  0  0
    8.1128   -2.0156   -0.7197 C   0  0  3  0  0  0  0  0  0  0  0  0
    8.0126   -1.7955   -2.2426 C   0  0  0  0  0  0  0  0  0  0  0  0
    8.8722   -0.7432   -2.6805 O   0  0  0  0  0  0  0  0  0  0  0  0
    9.4414   -2.6819   -0.3012 C   0  0  3  0  0  0  0  0  0  0  0  0
    9.4362   -2.8558    1.2303 C   0  0  3  0  0  0  0  0  0  0  0  0
    9.1937   -1.5178    1.9328 C   0  0  3  0  0  0  0  0  0  0  0  0
    9.0853   -1.6710    3.3425 O   0  0  0  0  0  0  0  0  0  0  0  0
   10.7034   -3.4054    1.6255 O   0  0  0  0  0  0  0  0  0  0  0  0
   10.6711   -1.9550   -0.7104 N   0  0  0  0  0  0  0  0  0  0  0  0
    5.7172    1.3580    3.3390 O   0  0  0  0  0  0  0  0  0  0  0  0
    0.7783   -0.0149   -0.6003 H   0  0  0  0  0  0  0  0  0  0  0  0
    1.4528    1.3530    0.0088 H   0  0  0  0  0  0  0  0  0  0  0  0
    3.1313   -0.2696   -0.2646 H   0  0  0  0  0  0  0  0  0  0  0  0
    2.1412   -1.4160    0.6415 H   0  0  0  0  0  0  0  0  0  0  0  0
    2.3123    0.0073    2.6701 H   0  0  0  0  0  0  0  0  0  0  0  0
    4.5940    1.4952    0.1619 H   0  0  0  0  0  0  0  0  0  0  0  0
    3.1402    4.0643    0.8102 H   0  0  0  0  0  0  0  0  0  0  0  0
    4.0876    2.6570   -1.2532 H   0  0  0  0  0  0  0  0  0  0  0  0
    2.7788    5.1139   -2.0094 H   0  0  0  0  0  0  0  0  0  0  0  0
    2.0104    3.9361   -1.1696 H   0  0  0  0  0  0  0  0  0  0  0  0
    5.1176    4.0454   -3.0239 H   0  0  0  0  0  0  0  0  0  0  0  0
    6.1438    3.6520   -1.6691 H   0  0  0  0  0  0  0  0  0  0  0  0
    6.5754    5.8530   -2.3250 H   0  0  0  0  0  0  0  0  0  0  0  0
    6.7396    5.4101    0.1077 H   0  0  0  0  0  0  0  0  0  0  0  0
    3.8031    6.2958    0.2245 H   0  0  0  0  0  0  0  0  0  0  0  0
    5.1933    5.1158    2.3371 H   0  0  0  0  0  0  0  0  0  0  0  0
    7.2492    7.6476   -1.8382 H   0  0  0  0  0  0  0  0  0  0  0  0
    8.7281    7.5243    1.5475 H   0  0  0  0  0  0  0  0  0  0  0  0
   11.2647    7.1590    1.6707 H   0  0  0  0  0  0  0  0  0  0  0  0
   11.2329    6.6880   -0.0385 H   0  0  0  0  0  0  0  0  0  0  0  0
    9.8330    5.3448    2.1554 H   0  0  0  0  0  0  0  0  0  0  0  0
   11.2035    4.8463    1.4273 H   0  0  0  0  0  0  0  0  0  0  0  0
   10.4124    9.4112    1.3173 H   0  0  0  0  0  0  0  0  0  0  0  0
    8.9003   10.9694    0.0942 H   0  0  0  0  0  0  0  0  0  0  0  0
    8.0443    9.9615    1.2703 H   0  0  0  0  0  0  0  0  0  0  0  0
    8.2337    9.6354   -1.7362 H   0  0  0  0  0  0  0  0  0  0  0  0
    5.9492   10.1141    0.0150 H   0  0  0  0  0  0  0  0  0  0  0  0
    5.8512    9.8824   -1.5826 H   0  0  0  0  0  0  0  0  0  0  0  0
   10.3223    8.5737   -1.3700 H   0  0  0  0  0  0  0  0  0  0  0  0
    3.8770    6.8539   -1.8180 H   0  0  0  0  0  0  0  0  0  0  0  0
    4.3832    6.3233   -3.2994 H   0  0  0  0  0  0  0  0  0  0  0  0
    6.7112    1.5391    1.5820 H   0  0  0  0  0  0  0  0  0  0  0  0
    5.4474   -0.5224    0.5225 H   0  0  0  0  0  0  0  0  0  0  0  0
    4.4123   -0.7631    3.3902 H   0  0  0  0  0  0  0  0  0  0  0  0
    4.5735   -2.5513    1.3894 H   0  0  0  0  0  0  0  0  0  0  0  0
    8.1185    0.2508    1.6893 H   0  0  0  0  0  0  0  0  0  0  0  0
    7.2856   -2.6750   -0.4333 H   0  0  0  0  0  0  0  0  0  0  0  0
    6.9961   -1.5139   -2.5223 H   0  0  0  0  0  0  0  0  0  0  0  0
    8.2851   -2.7042   -2.7927 H   0  0  0  0  0  0  0  0  0  0  0  0
    8.5640    0.0649   -2.2282 H   0  0  0  0  0  0  0  0  0  0  0  0
    9.5161   -3.6777   -0.7566 H   0  0  0  0  0  0  0  0  0  0  0  0
    8.6743   -3.5810    1.5343 H   0  0  0  0  0  0  0  0  0  0  0  0
   10.0756   -0.8881    1.7694 H   0  0  0  0  0  0  0  0  0  0  0  0
    8.1755   -2.0027    3.5262 H   0  0  0  0  0  0  0  0  0  0  0  0
   11.3647   -2.9216    1.0863 H   0  0  0  0  0  0  0  0  0  0  0  0
   10.4943   -0.9473   -0.6725 H   0  0  0  0  0  0  0  0  0  0  0  0
   10.8135   -2.1079   -1.7158 H   0  0  0  0  0  0  0  0  0  0  0  0
    4.8940    1.8527    3.5295 H   0  0  0  0  0  0  0  0  0  0  0  0
  1  2  1  0  0  0  0
  1 44  1  0  0  0  0
  1 45  1  0  0  0  0
  2  3  1  0  0  0  0
  2 46  1  0  0  0  0
  2 47  1  0  0  0  0
  3  4  1  0  0  0  0
  3 29  1  0  0  0  0
  3 48  1  0  0  0  0
  4  5  1  0  0  0  0
  5  6  1  0  0  0  0
  5 27  1  0  0  0  0
  5 49  1  0  0  0  0
  6  7  1  0  0  0  0
  7  8  1  0  0  0  0
  7 13  1  0  0  0  0
  7 50  1  0  0  0  0
  8  9  1  0  0  0  0
  8 10  1  0  0  0  0
  8 51  1  0  0  0  0
  9 52  1  0  0  0  0
  9 53  1  0  0  0  0
 10 11  1  0  0  0  0
 10 54  1  0  0  0  0
 10 55  1  0  0  0  0
 11 12  1  0  0  0  0
 11 26  1  0  0  0  0
 11 56  1  0  0  0  0
 12 13  1  0  0  0  0
 12 15  1  0  0  0  0
 12 57  1  0  0  0  0
 13 14  1  0  0  0  0
 13 58  1  0  0  0  0
 14 59  1  0  0  0  0
 15 16  1  0  0  0  0
 16 17  1  0  0  0  0
 16 23  1  0  0  0  0
 16 60  1  0  0  0  0
 17 18  1  0  0  0  0
 18 19  1  0  0  0  0
 18 21  1  0  0  0  0
 18 61  1  0  0  0  0
 19 20  1  0  0  0  0
 19 62  1  0  0  0  0
 19 63  1  0  0  0  0
 20 64  1  0  0  0  0
 20 65  1  0  0  0  0
 21 22  1  0  0  0  0
 21 25  1  0  0  0  0
 21 66  1  0  0  0  0
 22 23  1  0  0  0  0
 22 67  1  0  0  0  0
 22 68  1  0  0  0  0
 23 24  1  0  0  0  0
 23 69  1  0  0  0  0
 24 70  1  0  0  0  0
 24 71  1  0  0  0  0
 25 72  1  0  0  0  0
 26 73  1  0  0  0  0
 26 74  1  0  0  0  0
 27 28  1  0  0  0  0
 27 43  1  0  0  0  0
 27 75  1  0  0  0  0
 28 29  1  0  0  0  0
 28 31  1  0  0  0  0
 28 76  1  0  0  0  0
 29 30  1  0  0  0  0
 29 77  1  0  0  0  0
 30 78  1  0  0  0  0
 31 32  1  0  0  0  0
 32 33  1  0  0  0  0
 32 39  1  0  0  0  0
 32 79  1  0  0  0  0
 33 34  1  0  0  0  0
 34 35  1  0  0  0  0
 34 37  1  0  0  0  0
 34 80  1  0  0  0  0
 35 36  1  0  0  0  0
 35 81  1  0  0  0  0
 35 82  1  0  0  0  0
 36 83  1  0  0  0  0
 37 38  1  0  0  0  0
 37 42  1  0  0  0  0
 37 84  1  0  0  0  0
 38 39  1  0  0  0  0
 38 41  1  0  0  0  0
 38 85  1  0  0  0  0
 39 40  1  0  0  0  0
 39 86  1  0  0  0  0
 40 87  1  0  0  0  0
 41 88  1  0  0  0  0
 42 89  1  0  0  0  0
 42 90  1  0  0  0  0
 43 91  1  0  0  0  0
M  END
$$$$
Target_lig_1160
 OpenBabel04172516583D

 92 95  0  0  1  0  0  0  0  0999 V2000
    1.4823   -0.0769   -0.9346 N   0  0  0  0  0  0  0  0  0  0  0  0
    2.3836   -0.2664    0.2030 C   0  0  0  0  0  0  0  0  0  0  0  0
    3.0091   -1.6848    0.3539 C   0  0  3  0  0  0  0  0  0  0  0  0
    4.1901   -1.8166   -0.4770 O   0  0  0  0  0  0  0  0  0  0  0  0
    3.9168   -1.8397   -1.8757 C   0  0  3  0  0  0  0  0  0  0  0  0
    5.1587   -1.8580   -2.6616 O   0  0  0  0  0  0  0  0  0  0  0  0
    6.0886   -0.7144   -2.5112 C   0  0  3  0  0  0  0  0  0  0  0  0
    5.5314    0.6757   -2.9835 C   0  0  3  0  0  0  0  0  0  0  0  0
    6.2540    1.8414   -2.4302 N   0  0  0  0  0  0  0  0  0  0  0  0
    5.5000    0.8040   -4.5277 C   0  0  0  0  0  0  0  0  0  0  0  0
    6.8181    0.4444   -5.2749 C   0  0  3  0  0  0  0  0  0  0  0  0
    7.1971   -1.0132   -4.8645 C   0  0  3  0  0  0  0  0  0  0  0  0
    7.4461   -1.0086   -3.2981 C   0  0  3  0  0  0  0  0  0  0  0  0
    8.0553   -2.2193   -2.8331 O   0  0  0  0  0  0  0  0  0  0  0  0
    8.0535   -1.8656   -5.6610 O   0  0  0  0  0  0  0  0  0  0  0  0
    8.7408   -1.5158   -6.8696 C   0  0  3  0  0  0  0  0  0  0  0  0
    8.0227   -0.7457   -7.8398 O   0  0  0  0  0  0  0  0  0  0  0  0
    7.0981   -1.4257   -8.7157 C   0  0  3  0  0  0  0  0  0  0  0  0
    6.6728   -0.3716   -9.7831 C   0  0  0  0  0  0  0  0  0  0  0  0
    5.5978   -0.7792  -10.6984 N   0  0  0  0  0  0  0  0  0  0  0  0
    7.6296   -2.7238   -9.3741 C   0  0  3  0  0  0  0  0  0  0  0  0
    8.3607   -3.6047   -8.3872 C   0  0  0  0  0  0  0  0  0  0  0  0
    9.3918   -2.7838   -7.5928 C   0  0  3  0  0  0  0  0  0  0  0  0
   10.1818   -3.7097   -6.7555 N   0  0  0  0  0  0  0  0  0  0  0  0
    8.5136   -2.4482  -10.4825 O   0  0  0  0  0  0  0  0  0  0  0  0
    7.8152    1.4983   -4.9913 N   0  0  0  0  0  0  0  0  0  0  0  0
    3.0267   -3.1164   -2.1463 C   0  0  3  0  0  0  0  0  0  0  0  0
    1.7133   -3.1614   -1.2584 C   0  0  3  0  0  0  0  0  0  0  0  0
    1.9948   -2.8710    0.2771 C   0  0  3  0  0  0  0  0  0  0  0  0
    0.7455   -2.6313    1.0463 O   0  0  0  0  0  0  0  0  0  0  0  0
    0.8735   -2.4506    2.4885 C   0  0  3  0  0  0  0  0  0  0  0  0
    0.9716   -3.6795    3.2333 O   0  0  0  0  0  0  0  0  0  0  0  0
   -0.2762   -4.3478    3.5122 C   0  0  3  0  0  0  0  0  0  0  0  0
    0.0331   -5.7032    4.1760 C   0  0  0  0  0  0  0  0  0  0  0  0
   -1.0878   -6.2615    4.8464 O   0  0  0  0  0  0  0  0  0  0  0  0
   -1.2639   -3.4685    4.3019 C   0  0  3  0  0  0  0  0  0  0  0  0
   -1.5322   -2.2143    3.4645 C   0  0  3  0  0  0  0  0  0  0  0  0
   -0.2121   -1.4806    3.1315 C   0  0  3  0  0  0  0  0  0  0  0  0
   -0.5066   -0.2473    2.3771 N   0  0  0  0  0  0  0  0  0  0  0  0
   -2.4597   -1.3591    4.1599 O   0  0  0  0  0  0  0  0  0  0  0  0
   -0.8367   -3.0718    5.6177 O   0  0  0  0  0  0  0  0  0  0  0  0
    0.9261   -4.4160   -1.4524 N   0  0  0  0  0  0  0  0  0  0  0  0
    3.7734   -4.3257   -1.8912 O   0  0  0  0  0  0  0  0  0  0  0  0
    1.2378    0.9131   -1.0164 H   0  0  0  0  0  0  0  0  0  0  0  0
    0.5890   -0.5464   -0.7468 H   0  0  0  0  0  0  0  0  0  0  0  0
    1.8369   -0.0372    1.1037 H   0  0  0  0  0  0  0  0  0  0  0  0
    3.1978    0.4647    0.1076 H   0  0  0  0  0  0  0  0  0  0  0  0
    3.4257   -1.7070    1.3650 H   0  0  0  0  0  0  0  0  0  0  0  0
    3.3681   -0.9566   -2.1968 H   0  0  0  0  0  0  0  0  0  0  0  0
    6.3230   -0.6698   -1.4378 H   0  0  0  0  0  0  0  0  0  0  0  0
    4.5050    0.7853   -2.6226 H   0  0  0  0  0  0  0  0  0  0  0  0
    7.0245    2.0920   -3.0641 H   0  0  0  0  0  0  0  0  0  0  0  0
    6.6853    1.6347   -1.5311 H   0  0  0  0  0  0  0  0  0  0  0  0
    5.1752    1.8149   -4.8130 H   0  0  0  0  0  0  0  0  0  0  0  0
    4.7109    0.1359   -4.9024 H   0  0  0  0  0  0  0  0  0  0  0  0
    6.6207    0.4868   -6.3476 H   0  0  0  0  0  0  0  0  0  0  0  0
    6.2655   -1.5762   -4.9710 H   0  0  0  0  0  0  0  0  0  0  0  0
    8.1707   -0.2160   -3.0469 H   0  0  0  0  0  0  0  0  0  0  0  0
    7.5157   -2.5596   -2.1016 H   0  0  0  0  0  0  0  0  0  0  0  0
    9.5812   -0.8852   -6.5597 H   0  0  0  0  0  0  0  0  0  0  0  0
    6.2257   -1.6822   -8.1018 H   0  0  0  0  0  0  0  0  0  0  0  0
    7.5451   -0.0624  -10.3745 H   0  0  0  0  0  0  0  0  0  0  0  0
    6.3441    0.5355   -9.2619 H   0  0  0  0  0  0  0  0  0  0  0  0
    5.9780   -1.4516  -11.3670 H   0  0  0  0  0  0  0  0  0  0  0  0
    5.3436    0.0311  -11.2693 H   0  0  0  0  0  0  0  0  0  0  0  0
    6.7767   -3.2727   -9.8019 H   0  0  0  0  0  0  0  0  0  0  0  0
    8.8750   -4.3993   -8.9463 H   0  0  0  0  0  0  0  0  0  0  0  0
    7.6450   -4.0927   -7.7182 H   0  0  0  0  0  0  0  0  0  0  0  0
   10.0860   -2.3791   -8.3438 H   0  0  0  0  0  0  0  0  0  0  0  0
    9.8478   -4.6675   -6.8701 H   0  0  0  0  0  0  0  0  0  0  0  0
   11.1447   -3.7271   -7.0931 H   0  0  0  0  0  0  0  0  0  0  0  0
    8.6895   -3.3239  -10.9308 H   0  0  0  0  0  0  0  0  0  0  0  0
    8.7031    1.2740   -5.4415 H   0  0  0  0  0  0  0  0  0  0  0  0
    7.5074    2.3746   -5.4297 H   0  0  0  0  0  0  0  0  0  0  0  0
    2.7594   -3.1435   -3.2112 H   0  0  0  0  0  0  0  0  0  0  0  0
    1.0407   -2.3946   -1.6459 H   0  0  0  0  0  0  0  0  0  0  0  0
    2.4633   -3.7738    0.6945 H   0  0  0  0  0  0  0  0  0  0  0  0
    1.8245   -1.9501    2.6703 H   0  0  0  0  0  0  0  0  0  0  0  0
   -0.7503   -4.5729    2.5506 H   0  0  0  0  0  0  0  0  0  0  0  0
    0.8769   -5.6377    4.8721 H   0  0  0  0  0  0  0  0  0  0  0  0
    0.3226   -6.4067    3.3875 H   0  0  0  0  0  0  0  0  0  0  0  0
   -0.8206   -7.1393    5.1737 H   0  0  0  0  0  0  0  0  0  0  0  0
   -2.2153   -3.9903    4.4586 H   0  0  0  0  0  0  0  0  0  0  0  0
   -2.0236   -2.5036    2.5298 H   0  0  0  0  0  0  0  0  0  0  0  0
    0.2045   -1.1479    4.0936 H   0  0  0  0  0  0  0  0  0  0  0  0
   -0.8991   -0.4864    1.4693 H   0  0  0  0  0  0  0  0  0  0  0  0
    0.3167    0.3254    2.2514 H   0  0  0  0  0  0  0  0  0  0  0  0
   -2.4461   -1.6232    5.1003 H   0  0  0  0  0  0  0  0  0  0  0  0
    0.1332   -3.0930    5.6654 H   0  0  0  0  0  0  0  0  0  0  0  0
    1.2824   -5.1363   -0.8245 H   0  0  0  0  0  0  0  0  0  0  0  0
    1.1110   -4.7823   -2.3882 H   0  0  0  0  0  0  0  0  0  0  0  0
    4.6948   -4.1299   -2.1484 H   0  0  0  0  0  0  0  0  0  0  0  0
  1  2  1  0  0  0  0
  1 44  1  0  0  0  0
  1 45  1  0  0  0  0
  2  3  1  0  0  0  0
  2 46  1  0  0  0  0
  2 47  1  0  0  0  0
  3  4  1  0  0  0  0
  3 29  1  0  0  0  0
  3 48  1  0  0  0  0
  4  5  1  0  0  0  0
  5  6  1  0  0  0  0
  5 27  1  0  0  0  0
  5 49  1  0  0  0  0
  6  7  1  0  0  0  0
  7  8  1  0  0  0  0
  7 13  1  0  0  0  0
  7 50  1  0  0  0  0
  8  9  1  0  0  0  0
  8 10  1  0  0  0  0
  8 51  1  0  0  0  0
  9 52  1  0  0  0  0
  9 53  1  0  0  0  0
 10 11  1  0  0  0  0
 10 54  1  0  0  0  0
 10 55  1  0  0  0  0
 11 12  1  0  0  0  0
 11 26  1  0  0  0  0
 11 56  1  0  0  0  0
 12 13  1  0  0  0  0
 12 15  1  0  0  0  0
 12 57  1  0  0  0  0
 13 14  1  0  0  0  0
 13 58  1  0  0  0  0
 14 59  1  0  0  0  0
 15 16  1  0  0  0  0
 16 17  1  0  0  0  0
 16 23  1  0  0  0  0
 16 60  1  0  0  0  0
 17 18  1  0  0  0  0
 18 19  1  0  0  0  0
 18 21  1  0  0  0  0
 18 61  1  0  0  0  0
 19 20  1  0  0  0  0
 19 62  1  0  0  0  0
 19 63  1  0  0  0  0
 20 64  1  0  0  0  0
 20 65  1  0  0  0  0
 21 22  1  0  0  0  0
 21 25  1  0  0  0  0
 21 66  1  0  0  0  0
 22 23  1  0  0  0  0
 22 67  1  0  0  0  0
 22 68  1  0  0  0  0
 23 24  1  0  0  0  0
 23 69  1  0  0  0  0
 24 70  1  0  0  0  0
 24 71  1  0  0  0  0
 25 72  1  0  0  0  0
 26 73  1  0  0  0  0
 26 74  1  0  0  0  0
 27 28  1  0  0  0  0
 27 43  1  0  0  0  0
 27 75  1  0  0  0  0
 28 29  1  0  0  0  0
 28 42  1  0  0  0  0
 28 76  1  0  0  0  0
 29 30  1  0  0  0  0
 29 77  1  0  0  0  0
 30 31  1  0  0  0  0
 31 32  1  0  0  0  0
 31 38  1  0  0  0  0
 31 78  1  0  0  0  0
 32 33  1  0  0  0  0
 33 34  1  0  0  0  0
 33 36  1  0  0  0  0
 33 79  1  0  0  0  0
 34 35  1  0  0  0  0
 34 80  1  0  0  0  0
 34 81  1  0  0  0  0
 35 82  1  0  0  0  0
 36 37  1  0  0  0  0
 36 41  1  0  0  0  0
 36 83  1  0  0  0  0
 37 38  1  0  0  0  0
 37 40  1  0  0  0  0
 37 84  1  0  0  0  0
 38 39  1  0  0  0  0
 38 85  1  0  0  0  0
 39 86  1  0  0  0  0
 39 87  1  0  0  0  0
 40 88  1  0  0  0  0
 41 89  1  0  0  0  0
 42 90  1  0  0  0  0
 42 91  1  0  0  0  0
 43 92  1  0  0  0  0
M  END
$$$$
Target_lig_1161
 OpenBabel04172516583D

 92 95  0  0  1  0  0  0  0  0999 V2000
    7.1997    4.6841   -6.0579 N   0  0  0  0  0  0  0  0  0  0  0  0
    6.2002    5.7345   -5.9134 C   0  0  0  0  0  0  0  0  0  0  0  0
    4.7031    5.4037   -6.1770 C   0  0  3  0  0  0  0  0  0  0  0  0
    4.0985    4.6342   -5.1212 O   0  0  0  0  0  0  0  0  0  0  0  0
    4.2588    3.2242   -5.2466 C   0  0  3  0  0  0  0  0  0  0  0  0
    3.6648    2.5156   -4.1296 O   0  0  0  0  0  0  0  0  0  0  0  0
    4.2799    2.7463   -2.8537 C   0  0  3  0  0  0  0  0  0  0  0  0
    5.7451    2.2729   -2.8113 C   0  0  3  0  0  0  0  0  0  0  0  0
    6.4968    2.6605   -1.6034 N   0  0  0  0  0  0  0  0  0  0  0  0
    5.7833    0.7447   -3.0644 C   0  0  0  0  0  0  0  0  0  0  0  0
    4.9875   -0.0581   -2.0311 C   0  0  3  0  0  0  0  0  0  0  0  0
    3.5041    0.4041   -1.8620 C   0  0  3  0  0  0  0  0  0  0  0  0
    3.4546    1.9768   -1.7652 C   0  0  3  0  0  0  0  0  0  0  0  0
    2.0939    2.4384   -1.7736 O   0  0  0  0  0  0  0  0  0  0  0  0
    3.0593   -0.1127   -0.5998 O   0  0  0  0  0  0  0  0  0  0  0  0
    2.2427   -1.2327   -0.2918 C   0  0  3  0  0  0  0  0  0  0  0  0
    2.1223   -1.1581    1.1728 O   0  0  0  0  0  0  0  0  0  0  0  0
    3.4434   -1.1507    1.7726 C   0  0  3  0  0  0  0  0  0  0  0  0
    3.4105   -0.6154    3.2134 C   0  0  0  0  0  0  0  0  0  0  0  0
    3.2874    0.8216    3.1815 O   0  0  0  0  0  0  0  0  0  0  0  0
    3.7730    1.4444    4.3749 C   0  0  3  0  0  0  0  0  0  0  0  0
    2.8549    1.2895    5.4633 O   0  0  0  0  0  0  0  0  0  0  0  0
    1.5858    1.9392    5.2330 C   0  0  3  0  0  0  0  0  0  0  0  0
    0.6499    1.6376    6.4248 C   0  0  0  0  0  0  0  0  0  0  0  0
    0.3364    0.2099    6.5438 N   0  0  0  0  0  0  0  0  0  0  0  0
    1.8031    3.4562    5.0788 C   0  0  3  0  0  0  0  0  0  0  0  0
    2.7809    3.7206    3.9295 C   0  0  3  0  0  0  0  0  0  0  0  0
    4.0792    2.9432    4.1539 C   0  0  3  0  0  0  0  0  0  0  0  0
    4.9853    3.1797    3.0696 O   0  0  0  0  0  0  0  0  0  0  0  0
    3.0981    5.1227    3.8508 O   0  0  0  0  0  0  0  0  0  0  0  0
    2.3564    4.0378    6.2773 O   0  0  0  0  0  0  0  0  0  0  0  0
    4.1694   -2.5145    1.5827 C   0  0  3  0  0  0  0  0  0  0  0  0
    4.0413   -3.0111    0.1046 C   0  0  3  0  0  0  0  0  0  0  0  0
    2.6551   -2.7343   -0.5042 C   0  0  3  0  0  0  0  0  0  0  0  0
    2.4786   -3.3310   -1.8509 N   0  0  0  0  0  0  0  0  0  0  0  0
    4.3255   -4.4227    0.0095 O   0  0  0  0  0  0  0  0  0  0  0  0
    3.7418   -3.5666    2.5424 N   0  0  0  0  0  0  0  0  0  0  0  0
    5.7690    0.0580   -0.7730 N   0  0  0  0  0  0  0  0  0  0  0  0
    3.5830    2.7081   -6.5498 C   0  0  3  0  0  0  0  0  0  0  0  0
    4.1568    3.4285   -7.7675 C   0  0  0  0  0  0  0  0  0  0  0  0
    4.3110    4.9387   -7.6020 C   0  0  3  0  0  0  0  0  0  0  0  0
    5.2266    5.3886   -8.6032 O   0  0  0  0  0  0  0  0  0  0  0  0
    2.1075    2.8023   -6.5223 N   0  0  0  0  0  0  0  0  0  0  0  0
    7.2104    4.0631   -5.2541 H   0  0  0  0  0  0  0  0  0  0  0  0
    7.0564    4.1456   -6.9092 H   0  0  0  0  0  0  0  0  0  0  0  0
    6.4976    6.5504   -6.5838 H   0  0  0  0  0  0  0  0  0  0  0  0
    6.2904    6.1303   -4.8948 H   0  0  0  0  0  0  0  0  0  0  0  0
    4.2272    6.3901   -6.0766 H   0  0  0  0  0  0  0  0  0  0  0  0
    5.3155    2.9660   -5.3136 H   0  0  0  0  0  0  0  0  0  0  0  0
    4.2208    3.8277   -2.6361 H   0  0  0  0  0  0  0  0  0  0  0  0
    6.3157    2.7338   -3.6258 H   0  0  0  0  0  0  0  0  0  0  0  0
    6.5025    1.8563   -0.9572 H   0  0  0  0  0  0  0  0  0  0  0  0
    6.0389    3.4253   -1.1074 H   0  0  0  0  0  0  0  0  0  0  0  0
    6.8263    0.3957   -3.0874 H   0  0  0  0  0  0  0  0  0  0  0  0
    5.3821    0.5305   -4.0618 H   0  0  0  0  0  0  0  0  0  0  0  0
    4.9689   -1.1155   -2.3224 H   0  0  0  0  0  0  0  0  0  0  0  0
    2.8558    0.0644   -2.6771 H   0  0  0  0  0  0  0  0  0  0  0  0
    3.8442    2.2694   -0.7709 H   0  0  0  0  0  0  0  0  0  0  0  0
    2.0097    3.0742   -2.5073 H   0  0  0  0  0  0  0  0  0  0  0  0
    1.2302   -1.0865   -0.6995 H   0  0  0  0  0  0  0  0  0  0  0  0
    4.0396   -0.4013    1.2645 H   0  0  0  0  0  0  0  0  0  0  0  0
    4.3556   -0.8824    3.6973 H   0  0  0  0  0  0  0  0  0  0  0  0
    2.5642   -1.0234    3.7742 H   0  0  0  0  0  0  0  0  0  0  0  0
    4.7178    0.9678    4.6606 H   0  0  0  0  0  0  0  0  0  0  0  0
    1.1328    1.5373    4.3175 H   0  0  0  0  0  0  0  0  0  0  0  0
   -0.2860    2.1964    6.3139 H   0  0  0  0  0  0  0  0  0  0  0  0
    1.1205    1.9481    7.3640 H   0  0  0  0  0  0  0  0  0  0  0  0
   -0.0992   -0.1227    5.6853 H   0  0  0  0  0  0  0  0  0  0  0  0
   -0.3408    0.0719    7.2922 H   0  0  0  0  0  0  0  0  0  0  0  0
    0.8584    3.9789    4.8946 H   0  0  0  0  0  0  0  0  0  0  0  0
    2.3347    3.4443    2.9680 H   0  0  0  0  0  0  0  0  0  0  0  0
    4.5732    3.3366    5.0521 H   0  0  0  0  0  0  0  0  0  0  0  0
    4.8403    4.1149    2.8187 H   0  0  0  0  0  0  0  0  0  0  0  0
    3.1003    5.4486    4.7745 H   0  0  0  0  0  0  0  0  0  0  0  0
    2.8601    3.3385    6.7395 H   0  0  0  0  0  0  0  0  0  0  0  0
    5.2427   -2.3616    1.7680 H   0  0  0  0  0  0  0  0  0  0  0  0
    4.8023   -2.5315   -0.5138 H   0  0  0  0  0  0  0  0  0  0  0  0
    1.9552   -3.3209    0.1169 H   0  0  0  0  0  0  0  0  0  0  0  0
    3.3860   -3.7208   -2.1360 H   0  0  0  0  0  0  0  0  0  0  0  0
    1.9303   -4.1952   -1.7219 H   0  0  0  0  0  0  0  0  0  0  0  0
    3.9136   -4.8214    0.8033 H   0  0  0  0  0  0  0  0  0  0  0  0
    2.7249   -3.5486    2.6200 H   0  0  0  0  0  0  0  0  0  0  0  0
    4.0918   -3.3275    3.4795 H   0  0  0  0  0  0  0  0  0  0  0  0
    5.1131    0.2843   -0.0240 H   0  0  0  0  0  0  0  0  0  0  0  0
    6.1949   -0.8481   -0.5596 H   0  0  0  0  0  0  0  0  0  0  0  0
    3.8078    1.6388   -6.6459 H   0  0  0  0  0  0  0  0  0  0  0  0
    3.5365    3.2340   -8.6553 H   0  0  0  0  0  0  0  0  0  0  0  0
    5.1308    2.9889   -8.0170 H   0  0  0  0  0  0  0  0  0  0  0  0
    3.3387    5.3896   -7.8408 H   0  0  0  0  0  0  0  0  0  0  0  0
    5.1851    6.3592   -8.6533 H   0  0  0  0  0  0  0  0  0  0  0  0
    1.8331    3.7678   -6.3456 H   0  0  0  0  0  0  0  0  0  0  0  0
    1.7987    2.2983   -5.6835 H   0  0  0  0  0  0  0  0  0  0  0  0
  1  2  1  0  0  0  0
  1 44  1  0  0  0  0
  1 45  1  0  0  0  0
  2  3  1  0  0  0  0
  2 46  1  0  0  0  0
  2 47  1  0  0  0  0
  3  4  1  0  0  0  0
  3 41  1  0  0  0  0
  3 48  1  0  0  0  0
  4  5  1  0  0  0  0
  5  6  1  0  0  0  0
  5 39  1  0  0  0  0
  5 49  1  0  0  0  0
  6  7  1  0  0  0  0
  7  8  1  0  0  0  0
  7 13  1  0  0  0  0
  7 50  1  0  0  0  0
  8  9  1  0  0  0  0
  8 10  1  0  0  0  0
  8 51  1  0  0  0  0
  9 52  1  0  0  0  0
  9 53  1  0  0  0  0
 10 11  1  0  0  0  0
 10 54  1  0  0  0  0
 10 55  1  0  0  0  0
 11 12  1  0  0  0  0
 11 38  1  0  0  0  0
 11 56  1  0  0  0  0
 12 13  1  0  0  0  0
 12 15  1  0  0  0  0
 12 57  1  0  0  0  0
 13 14  1  0  0  0  0
 13 58  1  0  0  0  0
 14 59  1  0  0  0  0
 15 16  1  0  0  0  0
 16 17  1  0  0  0  0
 16 34  1  0  0  0  0
 16 60  1  0  0  0  0
 17 18  1  0  0  0  0
 18 19  1  0  0  0  0
 18 32  1  0  0  0  0
 18 61  1  0  0  0  0
 19 20  1  0  0  0  0
 19 62  1  0  0  0  0
 19 63  1  0  0  0  0
 20 21  1  0  0  0  0
 21 22  1  0  0  0  0
 21 28  1  0  0  0  0
 21 64  1  0  0  0  0
 22 23  1  0  0  0  0
 23 24  1  0  0  0  0
 23 26  1  0  0  0  0
 23 65  1  0  0  0  0
 24 25  1  0  0  0  0
 24 66  1  0  0  0  0
 24 67  1  0  0  0  0
 25 68  1  0  0  0  0
 25 69  1  0  0  0  0
 26 27  1  0  0  0  0
 26 31  1  0  0  0  0
 26 70  1  0  0  0  0
 27 28  1  0  0  0  0
 27 30  1  0  0  0  0
 27 71  1  0  0  0  0
 28 29  1  0  0  0  0
 28 72  1  0  0  0  0
 29 73  1  0  0  0  0
 30 74  1  0  0  0  0
 31 75  1  0  0  0  0
 32 33  1  0  0  0  0
 32 37  1  0  0  0  0
 32 76  1  0  0  0  0
 33 34  1  0  0  0  0
 33 36  1  0  0  0  0
 33 77  1  0  0  0  0
 34 35  1  0  0  0  0
 34 78  1  0  0  0  0
 35 79  1  0  0  0  0
 35 80  1  0  0  0  0
 36 81  1  0  0  0  0
 37 82  1  0  0  0  0
 37 83  1  0  0  0  0
 38 84  1  0  0  0  0
 38 85  1  0  0  0  0
 39 40  1  0  0  0  0
 39 43  1  0  0  0  0
 39 86  1  0  0  0  0
 40 41  1  0  0  0  0
 40 87  1  0  0  0  0
 40 88  1  0  0  0  0
 41 42  1  0  0  0  0
 41 89  1  0  0  0  0
 42 90  1  0  0  0  0
 43 91  1  0  0  0  0
 43 92  1  0  0  0  0
M  END
$$$$
Target_lig_1281
 OpenBabel04172516583D

 92 95  0  0  1  0  0  0  0  0999 V2000
    9.6910    4.2906    1.5452 N   0  0  0  0  0  0  0  0  0  0  0  0
   10.2551    3.0048    1.9743 C   0  0  0  0  0  0  0  0  0  0  0  0
    9.5721    2.3126    3.1910 C   0  0  3  0  0  0  0  0  0  0  0  0
    8.2695    1.7421    2.8956 O   0  0  0  0  0  0  0  0  0  0  0  0
    7.1199    2.2309    3.5967 C   0  0  3  0  0  0  0  0  0  0  0  0
    5.9898    1.2889    3.5758 O   0  0  0  0  0  0  0  0  0  0  0  0
    5.3892    0.9735    2.2874 C   0  0  3  0  0  0  0  0  0  0  0  0
    4.8264    2.2537    1.5934 C   0  0  3  0  0  0  0  0  0  0  0  0
    4.5874    2.0807    0.1559 N   0  0  0  0  0  0  0  0  0  0  0  0
    3.5753    2.7360    2.3284 C   0  0  0  0  0  0  0  0  0  0  0  0
    2.4720    1.6846    2.4922 C   0  0  3  0  0  0  0  0  0  0  0  0
    2.9761    0.4053    3.1855 C   0  0  3  0  0  0  0  0  0  0  0  0
    4.2387   -0.1354    2.4546 C   0  0  3  0  0  0  0  0  0  0  0  0
    4.7665   -1.2709    3.1484 O   0  0  0  0  0  0  0  0  0  0  0  0
    1.9162   -0.4922    3.6403 O   0  0  0  0  0  0  0  0  0  0  0  0
    0.9875   -1.1569    2.7653 C   0  0  3  0  0  0  0  0  0  0  0  0
    0.0109   -0.3297    2.1207 O   0  0  0  0  0  0  0  0  0  0  0  0
   -0.9066    0.3655    3.0000 C   0  0  3  0  0  0  0  0  0  0  0  0
   -1.6056    1.4635    2.1549 C   0  0  0  0  0  0  0  0  0  0  0  0
   -2.6069    2.3236    2.7120 O   0  0  0  0  0  0  0  0  0  0  0  0
   -2.3316    3.0686    3.8995 C   0  0  3  0  0  0  0  0  0  0  0  0
   -3.4052    3.9994    4.1639 O   0  0  0  0  0  0  0  0  0  0  0  0
   -3.4839    5.1175    3.2450 C   0  0  3  0  0  0  0  0  0  0  0  0
   -4.6649    5.9961    3.7100 C   0  0  0  0  0  0  0  0  0  0  0  0
   -4.8614    7.2107    2.9146 N   0  0  0  0  0  0  0  0  0  0  0  0
   -2.1653    5.9277    3.2032 C   0  0  3  0  0  0  0  0  0  0  0  0
   -1.0123    4.9820    2.9268 C   0  0  3  0  0  0  0  0  0  0  0  0
   -1.0303    3.8777    3.9797 C   0  0  3  0  0  0  0  0  0  0  0  0
    0.1251    3.0897    3.8705 O   0  0  0  0  0  0  0  0  0  0  0  0
    0.2466    5.6694    2.9896 O   0  0  0  0  0  0  0  0  0  0  0  0
   -1.8991    6.6037    4.4502 O   0  0  0  0  0  0  0  0  0  0  0  0
   -1.8162   -0.6232    3.7562 C   0  0  3  0  0  0  0  0  0  0  0  0
   -0.9093   -1.6725    4.4602 C   0  0  3  0  0  0  0  0  0  0  0  0
    0.1827   -2.2850    3.5288 C   0  0  3  0  0  0  0  0  0  0  0  0
    1.0421   -3.2337    4.2752 N   0  0  0  0  0  0  0  0  0  0  0  0
   -1.7695   -2.6946    5.0056 O   0  0  0  0  0  0  0  0  0  0  0  0
   -2.8839   -1.3275    3.0008 N   0  0  0  0  0  0  0  0  0  0  0  0
    1.7371    1.5427    1.2399 N   0  0  0  0  0  0  0  0  0  0  0  0
    7.4159    2.4987    5.1034 C   0  0  3  0  0  0  0  0  0  0  0  0
    8.5312    3.5252    5.2263 C   0  0  0  0  0  0  0  0  0  0  0  0
    9.8002    3.0191    4.5583 C   0  0  3  0  0  0  0  0  0  0  0  0
   10.7705    4.0652    4.5201 O   0  0  0  0  0  0  0  0  0  0  0  0
    7.7510    1.2626    5.8478 N   0  0  0  0  0  0  0  0  0  0  0  0
   10.4131    4.7748    0.9969 H   0  0  0  0  0  0  0  0  0  0  0  0
    8.9617    4.0985    0.8533 H   0  0  0  0  0  0  0  0  0  0  0  0
   11.3127    3.1754    2.2175 H   0  0  0  0  0  0  0  0  0  0  0  0
   10.2502    2.3253    1.1148 H   0  0  0  0  0  0  0  0  0  0  0  0
   10.1837    1.4058    3.2828 H   0  0  0  0  0  0  0  0  0  0  0  0
    6.8178    3.1839    3.1518 H   0  0  0  0  0  0  0  0  0  0  0  0
    6.1905    0.5298    1.6842 H   0  0  0  0  0  0  0  0  0  0  0  0
    5.5523    3.0571    1.6520 H   0  0  0  0  0  0  0  0  0  0  0  0
    3.8056    1.4756   -0.0282 H   0  0  0  0  0  0  0  0  0  0  0  0
    5.4018    1.6645   -0.2937 H   0  0  0  0  0  0  0  0  0  0  0  0
    3.1716    3.6349    1.8316 H   0  0  0  0  0  0  0  0  0  0  0  0
    3.8662    3.0852    3.3291 H   0  0  0  0  0  0  0  0  0  0  0  0
    1.7907    2.0722    3.2140 H   0  0  0  0  0  0  0  0  0  0  0  0
    3.3652    0.7386    4.1586 H   0  0  0  0  0  0  0  0  0  0  0  0
    3.9438   -0.4962    1.4634 H   0  0  0  0  0  0  0  0  0  0  0  0
    5.1906   -0.9257    3.9514 H   0  0  0  0  0  0  0  0  0  0  0  0
    1.5751   -1.6422    1.9774 H   0  0  0  0  0  0  0  0  0  0  0  0
   -0.3059    0.8576    3.7645 H   0  0  0  0  0  0  0  0  0  0  0  0
   -2.0816    0.9723    1.2935 H   0  0  0  0  0  0  0  0  0  0  0  0
   -0.8463    2.0993    1.6879 H   0  0  0  0  0  0  0  0  0  0  0  0
   -2.3411    2.3415    4.7177 H   0  0  0  0  0  0  0  0  0  0  0  0
   -3.6998    4.7244    2.2442 H   0  0  0  0  0  0  0  0  0  0  0  0
   -4.5313    6.2777    4.7628 H   0  0  0  0  0  0  0  0  0  0  0  0
   -5.5820    5.3978    3.6845 H   0  0  0  0  0  0  0  0  0  0  0  0
   -4.0944    7.8597    3.0939 H   0  0  0  0  0  0  0  0  0  0  0  0
   -5.6971    7.6915    3.2498 H   0  0  0  0  0  0  0  0  0  0  0  0
   -2.1914    6.7086    2.4368 H   0  0  0  0  0  0  0  0  0  0  0  0
   -1.0815    4.5592    1.9172 H   0  0  0  0  0  0  0  0  0  0  0  0
   -0.9658    4.3271    4.9765 H   0  0  0  0  0  0  0  0  0  0  0  0
    0.5745    3.4126    3.0629 H   0  0  0  0  0  0  0  0  0  0  0  0
    0.1844    6.2739    3.7576 H   0  0  0  0  0  0  0  0  0  0  0  0
   -2.2827    6.0705    5.1724 H   0  0  0  0  0  0  0  0  0  0  0  0
   -2.3517   -0.0748    4.5410 H   0  0  0  0  0  0  0  0  0  0  0  0
   -0.4238   -1.1924    5.3183 H   0  0  0  0  0  0  0  0  0  0  0  0
   -0.3487   -2.8819    2.7727 H   0  0  0  0  0  0  0  0  0  0  0  0
    1.5003   -2.7199    5.0283 H   0  0  0  0  0  0  0  0  0  0  0  0
    1.7889   -3.5727    3.6735 H   0  0  0  0  0  0  0  0  0  0  0  0
   -2.5384   -2.7197    4.3951 H   0  0  0  0  0  0  0  0  0  0  0  0
   -2.5467   -1.6239    2.0856 H   0  0  0  0  0  0  0  0  0  0  0  0
   -3.6599   -0.6841    2.8293 H   0  0  0  0  0  0  0  0  0  0  0  0
    2.0753    0.8063    0.6324 H   0  0  0  0  0  0  0  0  0  0  0  0
    1.6668    2.4154    0.7213 H   0  0  0  0  0  0  0  0  0  0  0  0
    6.5141    2.9113    5.5723 H   0  0  0  0  0  0  0  0  0  0  0  0
    8.7466    3.7511    6.2811 H   0  0  0  0  0  0  0  0  0  0  0  0
    8.2297    4.4757    4.7815 H   0  0  0  0  0  0  0  0  0  0  0  0
   10.2404    2.2687    5.2245 H   0  0  0  0  0  0  0  0  0  0  0  0
   10.3962    4.7998    4.0010 H   0  0  0  0  0  0  0  0  0  0  0  0
    8.4326    0.7241    5.3038 H   0  0  0  0  0  0  0  0  0  0  0  0
    6.9198    0.6686    5.8258 H   0  0  0  0  0  0  0  0  0  0  0  0
  1  2  1  0  0  0  0
  1 44  1  0  0  0  0
  1 45  1  0  0  0  0
  2  3  1  0  0  0  0
  2 46  1  0  0  0  0
  2 47  1  0  0  0  0
  3  4  1  0  0  0  0
  3 41  1  0  0  0  0
  3 48  1  0  0  0  0
  4  5  1  0  0  0  0
  5  6  1  0  0  0  0
  5 39  1  0  0  0  0
  5 49  1  0  0  0  0
  6  7  1  0  0  0  0
  7  8  1  0  0  0  0
  7 13  1  0  0  0  0
  7 50  1  0  0  0  0
  8  9  1  0  0  0  0
  8 10  1  0  0  0  0
  8 51  1  0  0  0  0
  9 52  1  0  0  0  0
  9 53  1  0  0  0  0
 10 11  1  0  0  0  0
 10 54  1  0  0  0  0
 10 55  1  0  0  0  0
 11 12  1  0  0  0  0
 11 38  1  0  0  0  0
 11 56  1  0  0  0  0
 12 13  1  0  0  0  0
 12 15  1  0  0  0  0
 12 57  1  0  0  0  0
 13 14  1  0  0  0  0
 13 58  1  0  0  0  0
 14 59  1  0  0  0  0
 15 16  1  0  0  0  0
 16 17  1  0  0  0  0
 16 34  1  0  0  0  0
 16 60  1  0  0  0  0
 17 18  1  0  0  0  0
 18 19  1  0  0  0  0
 18 32  1  0  0  0  0
 18 61  1  0  0  0  0
 19 20  1  0  0  0  0
 19 62  1  0  0  0  0
 19 63  1  0  0  0  0
 20 21  1  0  0  0  0
 21 22  1  0  0  0  0
 21 28  1  0  0  0  0
 21 64  1  0  0  0  0
 22 23  1  0  0  0  0
 23 24  1  0  0  0  0
 23 26  1  0  0  0  0
 23 65  1  0  0  0  0
 24 25  1  0  0  0  0
 24 66  1  0  0  0  0
 24 67  1  0  0  0  0
 25 68  1  0  0  0  0
 25 69  1  0  0  0  0
 26 27  1  0  0  0  0
 26 31  1  0  0  0  0
 26 70  1  0  0  0  0
 27 28  1  0  0  0  0
 27 30  1  0  0  0  0
 27 71  1  0  0  0  0
 28 29  1  0  0  0  0
 28 72  1  0  0  0  0
 29 73  1  0  0  0  0
 30 74  1  0  0  0  0
 31 75  1  0  0  0  0
 32 33  1  0  0  0  0
 32 37  1  0  0  0  0
 32 76  1  0  0  0  0
 33 34  1  0  0  0  0
 33 36  1  0  0  0  0
 33 77  1  0  0  0  0
 34 35  1  0  0  0  0
 34 78  1  0  0  0  0
 35 79  1  0  0  0  0
 35 80  1  0  0  0  0
 36 81  1  0  0  0  0
 37 82  1  0  0  0  0
 37 83  1  0  0  0  0
 38 84  1  0  0  0  0
 38 85  1  0  0  0  0
 39 40  1  0  0  0  0
 39 43  1  0  0  0  0
 39 86  1  0  0  0  0
 40 41  1  0  0  0  0
 40 87  1  0  0  0  0
 40 88  1  0  0  0  0
 41 42  1  0  0  0  0
 41 89  1  0  0  0  0
 42 90  1  0  0  0  0
 43 91  1  0  0  0  0
 43 92  1  0  0  0  0
M  END
$$$$
Target_lig_1162
 OpenBabel04172516583D

 92 95  0  0  1  0  0  0  0  0999 V2000
    3.0117   -1.7829    0.1746 N   0  0  0  0  0  0  0  0  0  0  0  0
    3.0262   -0.5724    1.0227 C   0  0  0  0  0  0  0  0  0  0  0  0
    3.9619    0.5990    0.5639 C   0  0  3  0  0  0  0  0  0  0  0  0
    3.3222    1.6334   -0.2334 O   0  0  0  0  0  0  0  0  0  0  0  0
    3.5416    1.7139   -1.6510 C   0  0  3  0  0  0  0  0  0  0  0  0
    3.5197    3.0835   -2.1259 O   0  0  0  0  0  0  0  0  0  0  0  0
    2.3868    3.5445   -2.9016 C   0  0  3  0  0  0  0  0  0  0  0  0
    2.9261    4.6237   -3.8950 C   0  0  3  0  0  0  0  0  0  0  0  0
    1.8999    5.1225   -4.8253 N   0  0  0  0  0  0  0  0  0  0  0  0
    3.6118    5.7695   -3.1259 C   0  0  0  0  0  0  0  0  0  0  0  0
    2.8507    6.3205   -1.9038 C   0  0  3  0  0  0  0  0  0  0  0  0
    2.0987    5.2279   -1.0716 C   0  0  3  0  0  0  0  0  0  0  0  0
    1.3574    4.2153   -1.9798 C   0  0  3  0  0  0  0  0  0  0  0  0
    0.7107    3.2012   -1.2016 O   0  0  0  0  0  0  0  0  0  0  0  0
    1.2062    5.7697   -0.0593 O   0  0  0  0  0  0  0  0  0  0  0  0
    1.9117    6.6196    0.8677 C   0  0  3  0  0  0  0  0  0  0  0  0
    2.9765    5.9479    1.5291 O   0  0  0  0  0  0  0  0  0  0  0  0
    2.5700    4.9359    2.4717 C   0  0  3  0  0  0  0  0  0  0  0  0
    3.9011    4.4020    3.0498 C   0  0  0  0  0  0  0  0  0  0  0  0
    3.8140    3.4247    4.1381 N   0  0  0  0  0  0  0  0  0  0  0  0
    1.5692    5.4819    3.5217 C   0  0  3  0  0  0  0  0  0  0  0  0
    0.4113    6.2299    2.8496 C   0  0  0  0  0  0  0  0  0  0  0  0
    0.9635    7.2898    1.8942 C   0  0  3  0  0  0  0  0  0  0  0  0
   -0.1226    8.0695    1.2714 N   0  0  0  0  0  0  0  0  0  0  0  0
    2.2188    6.3783    4.4505 O   0  0  0  0  0  0  0  0  0  0  0  0
    2.0135    7.4889   -2.2435 N   0  0  0  0  0  0  0  0  0  0  0  0
    4.9640    1.2389   -2.0754 C   0  0  3  0  0  0  0  0  0  0  0  0
    5.1831   -0.1586   -1.4640 C   0  0  3  0  0  0  0  0  0  0  0  0
    5.3323    0.0808    0.0554 C   0  0  3  0  0  0  0  0  0  0  0  0
    5.7846   -1.0758    0.7708 O   0  0  0  0  0  0  0  0  0  0  0  0
    6.2446   -0.9441   -2.0500 O   0  0  0  0  0  0  0  0  0  0  0  0
    6.0175   -1.1916   -3.4515 C   0  0  3  0  0  0  0  0  0  0  0  0
    4.7782   -1.8400   -3.7306 O   0  0  0  0  0  0  0  0  0  0  0  0
    4.7708   -3.2655   -3.5804 C   0  0  3  0  0  0  0  0  0  0  0  0
    3.3434   -3.7562   -3.8918 C   0  0  0  0  0  0  0  0  0  0  0  0
    3.2619   -5.1729   -3.9932 O   0  0  0  0  0  0  0  0  0  0  0  0
    5.7955   -3.9079   -4.5194 C   0  0  3  0  0  0  0  0  0  0  0  0
    7.2011   -3.3584   -4.2342 C   0  0  3  0  0  0  0  0  0  0  0  0
    7.2485   -1.8205   -4.1571 C   0  0  3  0  0  0  0  0  0  0  0  0
    8.5327   -1.3423   -3.5856 N   0  0  0  0  0  0  0  0  0  0  0  0
    8.0931   -3.7898   -5.2794 O   0  0  0  0  0  0  0  0  0  0  0  0
    5.4140   -3.7211   -5.8930 O   0  0  0  0  0  0  0  0  0  0  0  0
    6.0531    2.1966   -1.6901 N   0  0  0  0  0  0  0  0  0  0  0  0
    3.1817   -2.5996    0.7709 H   0  0  0  0  0  0  0  0  0  0  0  0
    2.0589   -1.9313   -0.1652 H   0  0  0  0  0  0  0  0  0  0  0  0
    3.3906   -0.9092    2.0057 H   0  0  0  0  0  0  0  0  0  0  0  0
    2.0000   -0.2278    1.1760 H   0  0  0  0  0  0  0  0  0  0  0  0
    4.1657    1.1233    1.5077 H   0  0  0  0  0  0  0  0  0  0  0  0
    2.7827    1.1123   -2.1657 H   0  0  0  0  0  0  0  0  0  0  0  0
    1.9557    2.7067   -3.4650 H   0  0  0  0  0  0  0  0  0  0  0  0
    3.7043    4.1529   -4.5117 H   0  0  0  0  0  0  0  0  0  0  0  0
    1.6979    6.1064   -4.6623 H   0  0  0  0  0  0  0  0  0  0  0  0
    2.2595    5.0927   -5.7819 H   0  0  0  0  0  0  0  0  0  0  0  0
    3.8797    6.5862   -3.8112 H   0  0  0  0  0  0  0  0  0  0  0  0
    4.5765    5.3889   -2.7630 H   0  0  0  0  0  0  0  0  0  0  0  0
    3.6274    6.7229   -1.2421 H   0  0  0  0  0  0  0  0  0  0  0  0
    2.8420    4.6531   -0.5110 H   0  0  0  0  0  0  0  0  0  0  0  0
    0.5637    4.7153   -2.5362 H   0  0  0  0  0  0  0  0  0  0  0  0
    0.3041    3.6874   -0.4623 H   0  0  0  0  0  0  0  0  0  0  0  0
    2.3648    7.4462    0.3167 H   0  0  0  0  0  0  0  0  0  0  0  0
    2.0787    4.1263    1.9165 H   0  0  0  0  0  0  0  0  0  0  0  0
    4.5323    5.2414    3.3714 H   0  0  0  0  0  0  0  0  0  0  0  0
    4.4537    3.9379    2.2220 H   0  0  0  0  0  0  0  0  0  0  0  0
    3.6722    3.9503    5.0034 H   0  0  0  0  0  0  0  0  0  0  0  0
    4.7345    2.9936    4.2494 H   0  0  0  0  0  0  0  0  0  0  0  0
    1.1726    4.6507    4.1178 H   0  0  0  0  0  0  0  0  0  0  0  0
   -0.2113    6.7186    3.6127 H   0  0  0  0  0  0  0  0  0  0  0  0
   -0.2259    5.5194    2.3097 H   0  0  0  0  0  0  0  0  0  0  0  0
    1.5642    7.9902    2.4892 H   0  0  0  0  0  0  0  0  0  0  0  0
   -0.5375    7.4929    0.5399 H   0  0  0  0  0  0  0  0  0  0  0  0
    0.3029    8.8462    0.7541 H   0  0  0  0  0  0  0  0  0  0  0  0
    1.5457    6.6717    5.0862 H   0  0  0  0  0  0  0  0  0  0  0  0
    1.6855    7.4614   -3.2028 H   0  0  0  0  0  0  0  0  0  0  0  0
    2.5881    8.3315   -2.1742 H   0  0  0  0  0  0  0  0  0  0  0  0
    4.9727    1.2382   -3.1656 H   0  0  0  0  0  0  0  0  0  0  0  0
    4.2811   -0.7507   -1.6313 H   0  0  0  0  0  0  0  0  0  0  0  0
    6.0870    0.8450    0.2676 H   0  0  0  0  0  0  0  0  0  0  0  0
    5.2967   -1.8234    0.4007 H   0  0  0  0  0  0  0  0  0  0  0  0
    5.9409   -0.2162   -3.9320 H   0  0  0  0  0  0  0  0  0  0  0  0
    5.0150   -3.5281   -2.5430 H   0  0  0  0  0  0  0  0  0  0  0  0
    2.9576   -3.3118   -4.8174 H   0  0  0  0  0  0  0  0  0  0  0  0
    2.6622   -3.4380   -3.0955 H   0  0  0  0  0  0  0  0  0  0  0  0
    3.4692   -5.3932   -4.9233 H   0  0  0  0  0  0  0  0  0  0  0  0
    5.8155   -4.9945   -4.3757 H   0  0  0  0  0  0  0  0  0  0  0  0
    7.5593   -3.7877   -3.2909 H   0  0  0  0  0  0  0  0  0  0  0  0
    7.2255   -1.4637   -5.1958 H   0  0  0  0  0  0  0  0  0  0  0  0
    8.5129   -1.5418   -2.5802 H   0  0  0  0  0  0  0  0  0  0  0  0
    8.5504   -0.3228   -3.6234 H   0  0  0  0  0  0  0  0  0  0  0  0
    7.8526   -4.6972   -5.5327 H   0  0  0  0  0  0  0  0  0  0  0  0
    5.8092   -2.8906   -6.2128 H   0  0  0  0  0  0  0  0  0  0  0  0
    5.6105    2.9389   -1.1347 H   0  0  0  0  0  0  0  0  0  0  0  0
    6.3969    2.6764   -2.5185 H   0  0  0  0  0  0  0  0  0  0  0  0
  1  2  1  0  0  0  0
  1 44  1  0  0  0  0
  1 45  1  0  0  0  0
  2  3  1  0  0  0  0
  2 46  1  0  0  0  0
  2 47  1  0  0  0  0
  3  4  1  0  0  0  0
  3 29  1  0  0  0  0
  3 48  1  0  0  0  0
  4  5  1  0  0  0  0
  5  6  1  0  0  0  0
  5 27  1  0  0  0  0
  5 49  1  0  0  0  0
  6  7  1  0  0  0  0
  7  8  1  0  0  0  0
  7 13  1  0  0  0  0
  7 50  1  0  0  0  0
  8  9  1  0  0  0  0
  8 10  1  0  0  0  0
  8 51  1  0  0  0  0
  9 52  1  0  0  0  0
  9 53  1  0  0  0  0
 10 11  1  0  0  0  0
 10 54  1  0  0  0  0
 10 55  1  0  0  0  0
 11 12  1  0  0  0  0
 11 26  1  0  0  0  0
 11 56  1  0  0  0  0
 12 13  1  0  0  0  0
 12 15  1  0  0  0  0
 12 57  1  0  0  0  0
 13 14  1  0  0  0  0
 13 58  1  0  0  0  0
 14 59  1  0  0  0  0
 15 16  1  0  0  0  0
 16 17  1  0  0  0  0
 16 23  1  0  0  0  0
 16 60  1  0  0  0  0
 17 18  1  0  0  0  0
 18 19  1  0  0  0  0
 18 21  1  0  0  0  0
 18 61  1  0  0  0  0
 19 20  1  0  0  0  0
 19 62  1  0  0  0  0
 19 63  1  0  0  0  0
 20 64  1  0  0  0  0
 20 65  1  0  0  0  0
 21 22  1  0  0  0  0
 21 25  1  0  0  0  0
 21 66  1  0  0  0  0
 22 23  1  0  0  0  0
 22 67  1  0  0  0  0
 22 68  1  0  0  0  0
 23 24  1  0  0  0  0
 23 69  1  0  0  0  0
 24 70  1  0  0  0  0
 24 71  1  0  0  0  0
 25 72  1  0  0  0  0
 26 73  1  0  0  0  0
 26 74  1  0  0  0  0
 27 28  1  0  0  0  0
 27 43  1  0  0  0  0
 27 75  1  0  0  0  0
 28 29  1  0  0  0  0
 28 31  1  0  0  0  0
 28 76  1  0  0  0  0
 29 30  1  0  0  0  0
 29 77  1  0  0  0  0
 30 78  1  0  0  0  0
 31 32  1  0  0  0  0
 32 33  1  0  0  0  0
 32 39  1  0  0  0  0
 32 79  1  0  0  0  0
 33 34  1  0  0  0  0
 34 35  1  0  0  0  0
 34 37  1  0  0  0  0
 34 80  1  0  0  0  0
 35 36  1  0  0  0  0
 35 81  1  0  0  0  0
 35 82  1  0  0  0  0
 36 83  1  0  0  0  0
 37 38  1  0  0  0  0
 37 42  1  0  0  0  0
 37 84  1  0  0  0  0
 38 39  1  0  0  0  0
 38 41  1  0  0  0  0
 38 85  1  0  0  0  0
 39 40  1  0  0  0  0
 39 86  1  0  0  0  0
 40 87  1  0  0  0  0
 40 88  1  0  0  0  0
 41 89  1  0  0  0  0
 42 90  1  0  0  0  0
 43 91  1  0  0  0  0
 43 92  1  0  0  0  0
M  END
$$$$
Target_lig_1282
 OpenBabel04172516583D

 92 95  0  0  1  0  0  0  0  0999 V2000
    1.9249   -0.0245   -1.1615 N   0  0  0  0  0  0  0  0  0  0  0  0
    2.9357   -0.1648   -0.1216 C   0  0  0  0  0  0  0  0  0  0  0  0
    3.9582   -1.3169   -0.3844 C   0  0  3  0  0  0  0  0  0  0  0  0
    3.3252   -2.5958   -0.6114 O   0  0  0  0  0  0  0  0  0  0  0  0
    2.7629   -3.2115    0.5456 C   0  0  3  0  0  0  0  0  0  0  0  0
    2.2720   -4.5184    0.2315 O   0  0  0  0  0  0  0  0  0  0  0  0
    0.8743   -4.6013   -0.1408 C   0  0  3  0  0  0  0  0  0  0  0  0
    0.4113   -6.0140    0.3301 C   0  0  3  0  0  0  0  0  0  0  0  0
   -1.0421   -6.2025    0.4114 N   0  0  0  0  0  0  0  0  0  0  0  0
    1.0397   -7.1042   -0.5461 C   0  0  0  0  0  0  0  0  0  0  0  0
    0.9193   -6.8738   -2.0578 C   0  0  3  0  0  0  0  0  0  0  0  0
    1.5015   -5.4749   -2.4687 C   0  0  3  0  0  0  0  0  0  0  0  0
    0.6691   -4.4109   -1.6809 C   0  0  3  0  0  0  0  0  0  0  0  0
    0.9568   -3.0655   -2.0595 O   0  0  0  0  0  0  0  0  0  0  0  0
    1.5339   -5.2776   -3.9217 O   0  0  0  0  0  0  0  0  0  0  0  0
    2.3964   -6.2333   -4.5812 C   0  0  3  0  0  0  0  0  0  0  0  0
    3.7750   -6.1025   -4.2305 O   0  0  0  0  0  0  0  0  0  0  0  0
    4.5303   -5.2126   -5.0627 C   0  0  3  0  0  0  0  0  0  0  0  0
    5.9870   -5.1257   -4.5375 C   0  0  0  0  0  0  0  0  0  0  0  0
    6.1116   -4.4718   -3.2314 N   0  0  0  0  0  0  0  0  0  0  0  0
    4.5496   -5.7594   -6.4954 C   0  0  3  0  0  0  0  0  0  0  0  0
    3.1456   -5.7769   -7.0631 C   0  0  0  0  0  0  0  0  0  0  0  0
    2.1320   -6.4407   -6.1211 C   0  0  3  0  0  0  0  0  0  0  0  0
    0.7652   -6.1582   -6.5968 N   0  0  0  0  0  0  0  0  0  0  0  0
    5.0815   -7.0966   -6.5315 O   0  0  0  0  0  0  0  0  0  0  0  0
   -0.4740   -7.0394   -2.5200 N   0  0  0  0  0  0  0  0  0  0  0  0
    3.8582   -3.3810    1.6470 C   0  0  3  0  0  0  0  0  0  0  0  0
    4.3233   -1.9449    2.0271 C   0  0  3  0  0  0  0  0  0  0  0  0
    5.0112   -1.3566    0.7669 C   0  0  3  0  0  0  0  0  0  0  0  0
    5.5454   -0.0462    0.9579 O   0  0  0  0  0  0  0  0  0  0  0  0
    5.0911   -1.8110    3.2522 O   0  0  0  0  0  0  0  0  0  0  0  0
    4.3378   -2.2600    4.4047 C   0  0  3  0  0  0  0  0  0  0  0  0
    3.1154   -1.5280    4.5956 O   0  0  0  0  0  0  0  0  0  0  0  0
    3.2459   -0.2617    5.2698 C   0  0  3  0  0  0  0  0  0  0  0  0
    1.8499    0.3744    5.3477 C   0  0  0  0  0  0  0  0  0  0  0  0
    1.8363    1.5359    6.1641 O   0  0  0  0  0  0  0  0  0  0  0  0
    3.8366   -0.4681    6.6686 C   0  0  3  0  0  0  0  0  0  0  0  0
    5.2100   -1.0921    6.5199 C   0  0  3  0  0  0  0  0  0  0  0  0
    5.1744   -2.4059    5.7137 C   0  0  3  0  0  0  0  0  0  0  0  0
    6.5129   -2.9919    5.4964 N   0  0  0  0  0  0  0  0  0  0  0  0
    5.7457   -1.3310    7.8304 O   0  0  0  0  0  0  0  0  0  0  0  0
    2.9983   -1.3508    7.4469 O   0  0  0  0  0  0  0  0  0  0  0  0
    5.0003   -4.2477    1.2314 N   0  0  0  0  0  0  0  0  0  0  0  0
    2.1561    0.7776   -1.7486 H   0  0  0  0  0  0  0  0  0  0  0  0
    1.0255    0.2077   -0.7396 H   0  0  0  0  0  0  0  0  0  0  0  0
    2.3972   -0.3341    0.8142 H   0  0  0  0  0  0  0  0  0  0  0  0
    3.4595    0.7912   -0.0079 H   0  0  0  0  0  0  0  0  0  0  0  0
    4.4799   -1.0707   -1.3153 H   0  0  0  0  0  0  0  0  0  0  0  0
    1.9494   -2.5985    0.9502 H   0  0  0  0  0  0  0  0  0  0  0  0
    0.3123   -3.8454    0.4253 H   0  0  0  0  0  0  0  0  0  0  0  0
    0.7932   -6.1834    1.3461 H   0  0  0  0  0  0  0  0  0  0  0  0
   -1.4847   -5.9267   -0.4694 H   0  0  0  0  0  0  0  0  0  0  0  0
   -1.4376   -5.6005    1.1320 H   0  0  0  0  0  0  0  0  0  0  0  0
    0.6251   -8.0884   -0.2885 H   0  0  0  0  0  0  0  0  0  0  0  0
    2.1090   -7.1719   -0.3041 H   0  0  0  0  0  0  0  0  0  0  0  0
    1.4934   -7.6858   -2.5043 H   0  0  0  0  0  0  0  0  0  0  0  0
    2.5413   -5.3840   -2.1348 H   0  0  0  0  0  0  0  0  0  0  0  0
   -0.3987   -4.5274   -1.9013 H   0  0  0  0  0  0  0  0  0  0  0  0
    1.9024   -2.8909   -1.8859 H   0  0  0  0  0  0  0  0  0  0  0  0
    2.1160   -7.2093   -4.1972 H   0  0  0  0  0  0  0  0  0  0  0  0
    4.0769   -4.2139   -5.0447 H   0  0  0  0  0  0  0  0  0  0  0  0
    6.5993   -4.5705   -5.2599 H   0  0  0  0  0  0  0  0  0  0  0  0
    6.4164   -6.1333   -4.4416 H   0  0  0  0  0  0  0  0  0  0  0  0
    5.5498   -3.6221   -3.2128 H   0  0  0  0  0  0  0  0  0  0  0  0
    7.0826   -4.1850   -3.0973 H   0  0  0  0  0  0  0  0  0  0  0  0
    5.1861   -5.1542   -7.1413 H   0  0  0  0  0  0  0  0  0  0  0  0
    3.1382   -6.3270   -8.0166 H   0  0  0  0  0  0  0  0  0  0  0  0
    2.8379   -4.7477   -7.2862 H   0  0  0  0  0  0  0  0  0  0  0  0
    2.2854   -7.5191   -6.2793 H   0  0  0  0  0  0  0  0  0  0  0  0
    0.5598   -5.1735   -6.4122 H   0  0  0  0  0  0  0  0  0  0  0  0
    0.0969   -6.6637   -6.0171 H   0  0  0  0  0  0  0  0  0  0  0  0
    4.8111   -7.5466   -5.7092 H   0  0  0  0  0  0  0  0  0  0  0  0
   -1.0192   -7.5416   -1.8169 H   0  0  0  0  0  0  0  0  0  0  0  0
   -0.4889   -7.6256   -3.3541 H   0  0  0  0  0  0  0  0  0  0  0  0
    3.3988   -3.9011    2.4868 H   0  0  0  0  0  0  0  0  0  0  0  0
    3.4416   -1.3343    2.2258 H   0  0  0  0  0  0  0  0  0  0  0  0
    5.8609   -1.9851    0.4670 H   0  0  0  0  0  0  0  0  0  0  0  0
    5.4098    0.2061    1.8857 H   0  0  0  0  0  0  0  0  0  0  0  0
    4.0245   -3.2852    4.2088 H   0  0  0  0  0  0  0  0  0  0  0  0
    3.9011    0.4027    4.6902 H   0  0  0  0  0  0  0  0  0  0  0  0
    1.0974   -0.3354    5.7163 H   0  0  0  0  0  0  0  0  0  0  0  0
    1.5266    0.6635    4.3428 H   0  0  0  0  0  0  0  0  0  0  0  0
    1.6471    1.2485    7.0782 H   0  0  0  0  0  0  0  0  0  0  0  0
    3.9154    0.4621    7.2314 H   0  0  0  0  0  0  0  0  0  0  0  0
    5.9007   -0.3769    6.0232 H   0  0  0  0  0  0  0  0  0  0  0  0
    4.6396   -3.1231    6.3539 H   0  0  0  0  0  0  0  0  0  0  0  0
    7.0760   -2.3321    4.9578 H   0  0  0  0  0  0  0  0  0  0  0  0
    6.4315   -3.8126    4.8947 H   0  0  0  0  0  0  0  0  0  0  0  0
    5.0577   -1.8195    8.3257 H   0  0  0  0  0  0  0  0  0  0  0  0
    2.5724   -1.9840    6.8380 H   0  0  0  0  0  0  0  0  0  0  0  0
    5.0933   -4.1730    0.2076 H   0  0  0  0  0  0  0  0  0  0  0  0
    4.7313   -5.2267    1.3469 H   0  0  0  0  0  0  0  0  0  0  0  0
  1  2  1  0  0  0  0
  1 44  1  0  0  0  0
  1 45  1  0  0  0  0
  2  3  1  0  0  0  0
  2 46  1  0  0  0  0
  2 47  1  0  0  0  0
  3  4  1  0  0  0  0
  3 29  1  0  0  0  0
  3 48  1  0  0  0  0
  4  5  1  0  0  0  0
  5  6  1  0  0  0  0
  5 27  1  0  0  0  0
  5 49  1  0  0  0  0
  6  7  1  0  0  0  0
  7  8  1  0  0  0  0
  7 13  1  0  0  0  0
  7 50  1  0  0  0  0
  8  9  1  0  0  0  0
  8 10  1  0  0  0  0
  8 51  1  0  0  0  0
  9 52  1  0  0  0  0
  9 53  1  0  0  0  0
 10 11  1  0  0  0  0
 10 54  1  0  0  0  0
 10 55  1  0  0  0  0
 11 12  1  0  0  0  0
 11 26  1  0  0  0  0
 11 56  1  0  0  0  0
 12 13  1  0  0  0  0
 12 15  1  0  0  0  0
 12 57  1  0  0  0  0
 13 14  1  0  0  0  0
 13 58  1  0  0  0  0
 14 59  1  0  0  0  0
 15 16  1  0  0  0  0
 16 17  1  0  0  0  0
 16 23  1  0  0  0  0
 16 60  1  0  0  0  0
 17 18  1  0  0  0  0
 18 19  1  0  0  0  0
 18 21  1  0  0  0  0
 18 61  1  0  0  0  0
 19 20  1  0  0  0  0
 19 62  1  0  0  0  0
 19 63  1  0  0  0  0
 20 64  1  0  0  0  0
 20 65  1  0  0  0  0
 21 22  1  0  0  0  0
 21 25  1  0  0  0  0
 21 66  1  0  0  0  0
 22 23  1  0  0  0  0
 22 67  1  0  0  0  0
 22 68  1  0  0  0  0
 23 24  1  0  0  0  0
 23 69  1  0  0  0  0
 24 70  1  0  0  0  0
 24 71  1  0  0  0  0
 25 72  1  0  0  0  0
 26 73  1  0  0  0  0
 26 74  1  0  0  0  0
 27 28  1  0  0  0  0
 27 43  1  0  0  0  0
 27 75  1  0  0  0  0
 28 29  1  0  0  0  0
 28 31  1  0  0  0  0
 28 76  1  0  0  0  0
 29 30  1  0  0  0  0
 29 77  1  0  0  0  0
 30 78  1  0  0  0  0
 31 32  1  0  0  0  0
 32 33  1  0  0  0  0
 32 39  1  0  0  0  0
 32 79  1  0  0  0  0
 33 34  1  0  0  0  0
 34 35  1  0  0  0  0
 34 37  1  0  0  0  0
 34 80  1  0  0  0  0
 35 36  1  0  0  0  0
 35 81  1  0  0  0  0
 35 82  1  0  0  0  0
 36 83  1  0  0  0  0
 37 38  1  0  0  0  0
 37 42  1  0  0  0  0
 37 84  1  0  0  0  0
 38 39  1  0  0  0  0
 38 41  1  0  0  0  0
 38 85  1  0  0  0  0
 39 40  1  0  0  0  0
 39 86  1  0  0  0  0
 40 87  1  0  0  0  0
 40 88  1  0  0  0  0
 41 89  1  0  0  0  0
 42 90  1  0  0  0  0
 43 91  1  0  0  0  0
 43 92  1  0  0  0  0
M  END
$$$$
Target_lig_1283
 OpenBabel04172516583D

 92 95  0  0  1  0  0  0  0  0999 V2000
    1.7768    0.2932   -1.0503 N   0  0  0  0  0  0  0  0  0  0  0  0
    2.1352   -0.9894   -0.4569 C   0  0  0  0  0  0  0  0  0  0  0  0
    2.9014   -0.8198    0.8847 C   0  0  3  0  0  0  0  0  0  0  0  0
    4.2460   -0.3548    0.7383 O   0  0  0  0  0  0  0  0  0  0  0  0
    5.2118   -1.2340    0.1578 C   0  0  3  0  0  0  0  0  0  0  0  0
    6.5013   -0.7083    0.5526 O   0  0  0  0  0  0  0  0  0  0  0  0
    7.0047    0.4943   -0.1053 C   0  0  3  0  0  0  0  0  0  0  0  0
    8.5491    0.5154    0.1711 C   0  0  3  0  0  0  0  0  0  0  0  0
    9.3635    1.3533   -0.7149 N   0  0  0  0  0  0  0  0  0  0  0  0
    8.8436    0.8677    1.6380 C   0  0  0  0  0  0  0  0  0  0  0  0
    8.1174    2.0869    2.2152 C   0  0  3  0  0  0  0  0  0  0  0  0
    6.5787    2.0395    1.9404 C   0  0  3  0  0  0  0  0  0  0  0  0
    6.3699    1.8405    0.3979 C   0  0  3  0  0  0  0  0  0  0  0  0
    5.0035    1.9230   -0.0187 O   0  0  0  0  0  0  0  0  0  0  0  0
    5.8679    3.1982    2.4753 O   0  0  0  0  0  0  0  0  0  0  0  0
    6.1776    3.5080    3.8569 C   0  0  3  0  0  0  0  0  0  0  0  0
    5.6745    2.5623    4.7976 O   0  0  0  0  0  0  0  0  0  0  0  0
    4.2675    2.6576    5.0782 C   0  0  3  0  0  0  0  0  0  0  0  0
    3.9640    1.6776    6.2333 C   0  0  0  0  0  0  0  0  0  0  0  0
    4.8511    1.8420    7.4127 N   0  0  0  0  0  0  0  0  0  0  0  0
    3.7408    4.0862    5.3794 C   0  0  3  0  0  0  0  0  0  0  0  0
    4.3088    5.1424    4.4374 C   0  0  0  0  0  0  0  0  0  0  0  0
    5.8106    4.9647    4.2610 C   0  0  3  0  0  0  0  0  0  0  0  0
    6.3281    5.9796    3.3221 N   0  0  0  0  0  0  0  0  0  0  0  0
    3.9714    4.5363    6.7175 O   0  0  0  0  0  0  0  0  0  0  0  0
    8.7184    3.3817    1.8387 N   0  0  0  0  0  0  0  0  0  0  0  0
    5.0834   -2.6948    0.7323 C   0  0  3  0  0  0  0  0  0  0  0  0
    3.6047   -3.1872    0.9138 C   0  0  3  0  0  0  0  0  0  0  0  0
    2.8498   -2.0974    1.7599 C   0  0  3  0  0  0  0  0  0  0  0  0
    1.5029   -2.4467    2.1722 O   0  0  0  0  0  0  0  0  0  0  0  0
    0.8393   -1.3991    2.9287 C   0  0  3  0  0  0  0  0  0  0  0  0
    1.4489   -1.1063    4.1888 O   0  0  0  0  0  0  0  0  0  0  0  0
    1.1054   -1.9831    5.2746 C   0  0  3  0  0  0  0  0  0  0  0  0
    1.7558   -1.4250    6.5524 C   0  0  0  0  0  0  0  0  0  0  0  0
    3.1820   -1.5408    6.5273 O   0  0  0  0  0  0  0  0  0  0  0  0
   -0.4127   -2.0696    5.4651 C   0  0  3  0  0  0  0  0  0  0  0  0
   -1.0693   -2.5499    4.1653 C   0  0  3  0  0  0  0  0  0  0  0  0
   -0.7054   -1.5947    3.0156 C   0  0  3  0  0  0  0  0  0  0  0  0
   -1.3101   -1.9830    1.7220 N   0  0  0  0  0  0  0  0  0  0  0  0
   -2.4889   -2.5949    4.3761 O   0  0  0  0  0  0  0  0  0  0  0  0
   -0.9869   -0.8017    5.8424 O   0  0  0  0  0  0  0  0  0  0  0  0
    3.5555   -4.5476    1.4994 N   0  0  0  0  0  0  0  0  0  0  0  0
    5.7038   -2.8017    2.0321 O   0  0  0  0  0  0  0  0  0  0  0  0
    1.4997    0.1631   -2.0203 H   0  0  0  0  0  0  0  0  0  0  0  0
    2.5858    0.9223   -1.0618 H   0  0  0  0  0  0  0  0  0  0  0  0
    2.7339   -1.5340   -1.1922 H   0  0  0  0  0  0  0  0  0  0  0  0
    1.2065   -1.5493   -0.2957 H   0  0  0  0  0  0  0  0  0  0  0  0
    2.4321    0.0031    1.4190 H   0  0  0  0  0  0  0  0  0  0  0  0
    5.1049   -1.2310   -0.9263 H   0  0  0  0  0  0  0  0  0  0  0  0
    6.8353    0.3684   -1.1823 H   0  0  0  0  0  0  0  0  0  0  0  0
    8.9229   -0.5066    0.0255 H   0  0  0  0  0  0  0  0  0  0  0  0
    9.1988    2.3458   -0.5945 H   0  0  0  0  0  0  0  0  0  0  0  0
    9.2009    1.1309   -1.6952 H   0  0  0  0  0  0  0  0  0  0  0  0
    9.9252    0.9731    1.8000 H   0  0  0  0  0  0  0  0  0  0  0  0
    8.5477    0.0046    2.2505 H   0  0  0  0  0  0  0  0  0  0  0  0
    8.2714    2.0071    3.2938 H   0  0  0  0  0  0  0  0  0  0  0  0
    6.1419    1.1675    2.4499 H   0  0  0  0  0  0  0  0  0  0  0  0
    6.8518    2.6699   -0.1374 H   0  0  0  0  0  0  0  0  0  0  0  0
    4.5282    1.2386    0.4914 H   0  0  0  0  0  0  0  0  0  0  0  0
    7.2573    3.4956    3.9892 H   0  0  0  0  0  0  0  0  0  0  0  0
    3.7462    2.2897    4.1863 H   0  0  0  0  0  0  0  0  0  0  0  0
    4.1319    0.6559    5.8660 H   0  0  0  0  0  0  0  0  0  0  0  0
    2.9307    1.7586    6.5580 H   0  0  0  0  0  0  0  0  0  0  0  0
    5.7997    1.6182    7.1134 H   0  0  0  0  0  0  0  0  0  0  0  0
    4.6017    1.1068    8.0890 H   0  0  0  0  0  0  0  0  0  0  0  0
    2.6501    4.0733    5.2630 H   0  0  0  0  0  0  0  0  0  0  0  0
    4.1178    6.1421    4.8562 H   0  0  0  0  0  0  0  0  0  0  0  0
    3.8023    5.0866    3.4704 H   0  0  0  0  0  0  0  0  0  0  0  0
    6.2750    5.1497    5.2407 H   0  0  0  0  0  0  0  0  0  0  0  0
    6.0644    5.6770    2.3807 H   0  0  0  0  0  0  0  0  0  0  0  0
    7.3482    5.9218    3.3216 H   0  0  0  0  0  0  0  0  0  0  0  0
    4.6758    3.9843    7.1133 H   0  0  0  0  0  0  0  0  0  0  0  0
    8.7053    3.5513    0.8382 H   0  0  0  0  0  0  0  0  0  0  0  0
    9.6952    3.4160    2.1302 H   0  0  0  0  0  0  0  0  0  0  0  0
    5.6397   -3.3756    0.0727 H   0  0  0  0  0  0  0  0  0  0  0  0
    3.1352   -3.2964   -0.0709 H   0  0  0  0  0  0  0  0  0  0  0  0
    3.4252   -1.9391    2.6794 H   0  0  0  0  0  0  0  0  0  0  0  0
    0.9153   -0.4770    2.3588 H   0  0  0  0  0  0  0  0  0  0  0  0
    1.5195   -2.9731    5.0553 H   0  0  0  0  0  0  0  0  0  0  0  0
    1.4022   -1.9415    7.4474 H   0  0  0  0  0  0  0  0  0  0  0  0
    1.5435   -0.3575    6.6687 H   0  0  0  0  0  0  0  0  0  0  0  0
    3.4248   -2.2758    5.9397 H   0  0  0  0  0  0  0  0  0  0  0  0
   -0.6633   -2.7593    6.2791 H   0  0  0  0  0  0  0  0  0  0  0  0
   -0.7395   -3.5684    3.9337 H   0  0  0  0  0  0  0  0  0  0  0  0
   -1.1423   -0.6183    3.2684 H   0  0  0  0  0  0  0  0  0  0  0  0
   -0.8271   -2.8169    1.3854 H   0  0  0  0  0  0  0  0  0  0  0  0
   -1.1106   -1.2548    1.0301 H   0  0  0  0  0  0  0  0  0  0  0  0
   -2.7272   -1.7532    4.8108 H   0  0  0  0  0  0  0  0  0  0  0  0
   -0.4268   -0.0826    5.4955 H   0  0  0  0  0  0  0  0  0  0  0  0
    4.1006   -4.5301    2.3651 H   0  0  0  0  0  0  0  0  0  0  0  0
    4.0742   -5.1933    0.8902 H   0  0  0  0  0  0  0  0  0  0  0  0
    5.8950   -1.8901    2.3206 H   0  0  0  0  0  0  0  0  0  0  0  0
  1  2  1  0  0  0  0
  1 44  1  0  0  0  0
  1 45  1  0  0  0  0
  2  3  1  0  0  0  0
  2 46  1  0  0  0  0
  2 47  1  0  0  0  0
  3  4  1  0  0  0  0
  3 29  1  0  0  0  0
  3 48  1  0  0  0  0
  4  5  1  0  0  0  0
  5  6  1  0  0  0  0
  5 27  1  0  0  0  0
  5 49  1  0  0  0  0
  6  7  1  0  0  0  0
  7  8  1  0  0  0  0
  7 13  1  0  0  0  0
  7 50  1  0  0  0  0
  8  9  1  0  0  0  0
  8 10  1  0  0  0  0
  8 51  1  0  0  0  0
  9 52  1  0  0  0  0
  9 53  1  0  0  0  0
 10 11  1  0  0  0  0
 10 54  1  0  0  0  0
 10 55  1  0  0  0  0
 11 12  1  0  0  0  0
 11 26  1  0  0  0  0
 11 56  1  0  0  0  0
 12 13  1  0  0  0  0
 12 15  1  0  0  0  0
 12 57  1  0  0  0  0
 13 14  1  0  0  0  0
 13 58  1  0  0  0  0
 14 59  1  0  0  0  0
 15 16  1  0  0  0  0
 16 17  1  0  0  0  0
 16 23  1  0  0  0  0
 16 60  1  0  0  0  0
 17 18  1  0  0  0  0
 18 19  1  0  0  0  0
 18 21  1  0  0  0  0
 18 61  1  0  0  0  0
 19 20  1  0  0  0  0
 19 62  1  0  0  0  0
 19 63  1  0  0  0  0
 20 64  1  0  0  0  0
 20 65  1  0  0  0  0
 21 22  1  0  0  0  0
 21 25  1  0  0  0  0
 21 66  1  0  0  0  0
 22 23  1  0  0  0  0
 22 67  1  0  0  0  0
 22 68  1  0  0  0  0
 23 24  1  0  0  0  0
 23 69  1  0  0  0  0
 24 70  1  0  0  0  0
 24 71  1  0  0  0  0
 25 72  1  0  0  0  0
 26 73  1  0  0  0  0
 26 74  1  0  0  0  0
 27 28  1  0  0  0  0
 27 43  1  0  0  0  0
 27 75  1  0  0  0  0
 28 29  1  0  0  0  0
 28 42  1  0  0  0  0
 28 76  1  0  0  0  0
 29 30  1  0  0  0  0
 29 77  1  0  0  0  0
 30 31  1  0  0  0  0
 31 32  1  0  0  0  0
 31 38  1  0  0  0  0
 31 78  1  0  0  0  0
 32 33  1  0  0  0  0
 33 34  1  0  0  0  0
 33 36  1  0  0  0  0
 33 79  1  0  0  0  0
 34 35  1  0  0  0  0
 34 80  1  0  0  0  0
 34 81  1  0  0  0  0
 35 82  1  0  0  0  0
 36 37  1  0  0  0  0
 36 41  1  0  0  0  0
 36 83  1  0  0  0  0
 37 38  1  0  0  0  0
 37 40  1  0  0  0  0
 37 84  1  0  0  0  0
 38 39  1  0  0  0  0
 38 85  1  0  0  0  0
 39 86  1  0  0  0  0
 39 87  1  0  0  0  0
 40 88  1  0  0  0  0
 41 89  1  0  0  0  0
 42 90  1  0  0  0  0
 42 91  1  0  0  0  0
 43 92  1  0  0  0  0
M  END
$$$$
Target_lig_1163
 OpenBabel04172516583D

 91 94  0  0  1  0  0  0  0  0999 V2000
    6.1667   -5.7102    3.5782 N   0  0  0  0  0  0  0  0  0  0  0  0
    6.4744   -4.5369    2.7540 C   0  0  0  0  0  0  0  0  0  0  0  0
    7.2320   -4.8468    1.4350 C   0  0  3  0  0  0  0  0  0  0  0  0
    7.5201   -3.6346    0.7035 O   0  0  0  0  0  0  0  0  0  0  0  0
    6.3782   -3.0290    0.0676 C   0  0  3  0  0  0  0  0  0  0  0  0
    6.6939   -1.8200   -0.6630 O   0  0  0  0  0  0  0  0  0  0  0  0
    7.4370   -0.8056    0.0596 C   0  0  3  0  0  0  0  0  0  0  0  0
    6.6752   -0.2342    1.2863 C   0  0  3  0  0  0  0  0  0  0  0  0
    7.5552    0.4004    2.2751 N   0  0  0  0  0  0  0  0  0  0  0  0
    5.5671    0.7344    0.8588 C   0  0  0  0  0  0  0  0  0  0  0  0
    6.0100    1.8662   -0.0763 C   0  0  3  0  0  0  0  0  0  0  0  0
    6.6765    1.2823   -1.3628 C   0  0  3  0  0  0  0  0  0  0  0  0
    7.8415    0.3221   -0.9549 C   0  0  3  0  0  0  0  0  0  0  0  0
    8.4018   -0.2979   -2.1239 O   0  0  0  0  0  0  0  0  0  0  0  0
    7.1544    2.3193   -2.2809 O   0  0  0  0  0  0  0  0  0  0  0  0
    6.1561    3.2910   -2.6385 C   0  0  3  0  0  0  0  0  0  0  0  0
    5.0456    2.7298   -3.3175 O   0  0  0  0  0  0  0  0  0  0  0  0
    5.0474    2.6237   -4.7613 C   0  0  3  0  0  0  0  0  0  0  0  0
    3.5701    2.2589   -5.0329 C   0  0  0  0  0  0  0  0  0  0  0  0
    3.0762    2.1373   -6.3780 O   0  0  0  0  0  0  0  0  0  0  0  0
    1.6333    1.9963   -6.3002 C   0  0  3  0  0  0  0  0  0  0  0  0
    1.2900    0.7947   -5.5938 O   0  0  0  0  0  0  0  0  0  0  0  0
    1.5588   -0.3933   -6.3600 C   0  0  3  0  0  0  0  0  0  0  0  0
    1.3274   -1.5945   -5.4373 C   0  0  0  0  0  0  0  0  0  0  0  0
    0.0535   -1.5043   -4.7982 O   0  0  0  0  0  0  0  0  0  0  0  0
    0.6493   -0.4062   -7.5938 C   0  0  3  0  0  0  0  0  0  0  0  0
    1.0055    0.7992   -8.4761 C   0  0  3  0  0  0  0  0  0  0  0  0
    0.8667    2.1043   -7.6593 C   0  0  3  0  0  0  0  0  0  0  0  0
    1.1900    3.3071   -8.4539 N   0  0  0  0  0  0  0  0  0  0  0  0
    0.1172    0.7980   -9.6065 O   0  0  0  0  0  0  0  0  0  0  0  0
   -0.7447   -0.2861   -7.2440 O   0  0  0  0  0  0  0  0  0  0  0  0
    5.5031    3.9191   -5.4494 C   0  0  3  0  0  0  0  0  0  0  0  0
    6.8442    4.3855   -4.8383 C   0  0  3  0  0  0  0  0  0  0  0  0
    6.7313    4.5601   -3.3191 C   0  0  3  0  0  0  0  0  0  0  0  0
    8.0007    5.0676   -2.7359 N   0  0  0  0  0  0  0  0  0  0  0  0
    7.2466    5.6357   -5.4207 O   0  0  0  0  0  0  0  0  0  0  0  0
    4.4901    4.9328   -5.3349 O   0  0  0  0  0  0  0  0  0  0  0  0
    6.8220    2.8958    0.5986 N   0  0  0  0  0  0  0  0  0  0  0  0
    5.7371   -4.0447   -0.9374 C   0  0  3  0  0  0  0  0  0  0  0  0
    5.3569   -5.3389   -0.2110 C   0  0  0  0  0  0  0  0  0  0  0  0
    6.5494   -5.9232    0.5381 C   0  0  3  0  0  0  0  0  0  0  0  0
    6.1405   -7.0959    1.2419 O   0  0  0  0  0  0  0  0  0  0  0  0
    6.6364   -4.3554   -2.0730 N   0  0  0  0  0  0  0  0  0  0  0  0
    5.6371   -5.4121    4.4021 H   0  0  0  0  0  0  0  0  0  0  0  0
    7.0351   -6.1031    3.9521 H   0  0  0  0  0  0  0  0  0  0  0  0
    7.0669   -3.8283    3.3411 H   0  0  0  0  0  0  0  0  0  0  0  0
    5.5281   -4.0337    2.5385 H   0  0  0  0  0  0  0  0  0  0  0  0
    8.2008   -5.2632    1.7311 H   0  0  0  0  0  0  0  0  0  0  0  0
    5.6269   -2.7759    0.8207 H   0  0  0  0  0  0  0  0  0  0  0  0
    8.3640   -1.2904    0.3924 H   0  0  0  0  0  0  0  0  0  0  0  0
    6.1797   -1.0456    1.8262 H   0  0  0  0  0  0  0  0  0  0  0  0
    8.0599    1.1865    1.8722 H   0  0  0  0  0  0  0  0  0  0  0  0
    8.2661   -0.2641    2.5847 H   0  0  0  0  0  0  0  0  0  0  0  0
    5.0708    1.1578    1.7427 H   0  0  0  0  0  0  0  0  0  0  0  0
    4.7891    0.1602    0.3373 H   0  0  0  0  0  0  0  0  0  0  0  0
    5.0844    2.3776   -0.3604 H   0  0  0  0  0  0  0  0  0  0  0  0
    5.9369    0.6957   -1.9226 H   0  0  0  0  0  0  0  0  0  0  0  0
    8.6517    0.9191   -0.5197 H   0  0  0  0  0  0  0  0  0  0  0  0
    7.8464   -1.0801   -2.3010 H   0  0  0  0  0  0  0  0  0  0  0  0
    5.7448    3.6944   -1.7135 H   0  0  0  0  0  0  0  0  0  0  0  0
    5.7079    1.8005   -5.0594 H   0  0  0  0  0  0  0  0  0  0  0  0
    2.9566    2.9990   -4.5022 H   0  0  0  0  0  0  0  0  0  0  0  0
    3.3899    1.3034   -4.5246 H   0  0  0  0  0  0  0  0  0  0  0  0
    1.2567    2.8302   -5.6943 H   0  0  0  0  0  0  0  0  0  0  0  0
    2.6107   -0.4079   -6.6714 H   0  0  0  0  0  0  0  0  0  0  0  0
    2.0875   -1.6174   -4.6486 H   0  0  0  0  0  0  0  0  0  0  0  0
    1.3786   -2.5377   -5.9898 H   0  0  0  0  0  0  0  0  0  0  0  0
    0.1378   -0.7825   -4.1456 H   0  0  0  0  0  0  0  0  0  0  0  0
    0.7564   -1.3366   -8.1607 H   0  0  0  0  0  0  0  0  0  0  0  0
    2.0264    0.6981   -8.8604 H   0  0  0  0  0  0  0  0  0  0  0  0
   -0.1997    2.2019   -7.4121 H   0  0  0  0  0  0  0  0  0  0  0  0
    2.1762    3.2831   -8.7116 H   0  0  0  0  0  0  0  0  0  0  0  0
    1.0675    4.1418   -7.8833 H   0  0  0  0  0  0  0  0  0  0  0  0
   -0.7806    0.7164   -9.2268 H   0  0  0  0  0  0  0  0  0  0  0  0
   -0.8175   -0.4410   -6.2793 H   0  0  0  0  0  0  0  0  0  0  0  0
    5.6299    3.7572   -6.5262 H   0  0  0  0  0  0  0  0  0  0  0  0
    7.6286    3.6544   -5.0751 H   0  0  0  0  0  0  0  0  0  0  0  0
    6.0091    5.3701   -3.1551 H   0  0  0  0  0  0  0  0  0  0  0  0
    8.6747    4.2958   -2.7635 H   0  0  0  0  0  0  0  0  0  0  0  0
    7.8457    5.2108   -1.7337 H   0  0  0  0  0  0  0  0  0  0  0  0
    7.7714    6.0887   -4.7288 H   0  0  0  0  0  0  0  0  0  0  0  0
    4.3491    5.1393   -4.3985 H   0  0  0  0  0  0  0  0  0  0  0  0
    7.8195    2.7636    0.4495 H   0  0  0  0  0  0  0  0  0  0  0  0
    6.6475    2.8878    1.6057 H   0  0  0  0  0  0  0  0  0  0  0  0
    4.8335   -3.5927   -1.3635 H   0  0  0  0  0  0  0  0  0  0  0  0
    4.9546   -6.0826   -0.9110 H   0  0  0  0  0  0  0  0  0  0  0  0
    4.5406   -5.1444    0.4975 H   0  0  0  0  0  0  0  0  0  0  0  0
    7.2848   -6.2658   -0.2002 H   0  0  0  0  0  0  0  0  0  0  0  0
    5.8605   -6.8232    2.1439 H   0  0  0  0  0  0  0  0  0  0  0  0
    7.5446   -4.6439   -1.7017 H   0  0  0  0  0  0  0  0  0  0  0  0
    6.8394   -3.4789   -2.5542 H   0  0  0  0  0  0  0  0  0  0  0  0
  1  2  1  0  0  0  0
  1 44  1  0  0  0  0
  1 45  1  0  0  0  0
  2  3  1  0  0  0  0
  2 46  1  0  0  0  0
  2 47  1  0  0  0  0
  3  4  1  0  0  0  0
  3 41  1  0  0  0  0
  3 48  1  0  0  0  0
  4  5  1  0  0  0  0
  5  6  1  0  0  0  0
  5 39  1  0  0  0  0
  5 49  1  0  0  0  0
  6  7  1  0  0  0  0
  7  8  1  0  0  0  0
  7 13  1  0  0  0  0
  7 50  1  0  0  0  0
  8  9  1  0  0  0  0
  8 10  1  0  0  0  0
  8 51  1  0  0  0  0
  9 52  1  0  0  0  0
  9 53  1  0  0  0  0
 10 11  1  0  0  0  0
 10 54  1  0  0  0  0
 10 55  1  0  0  0  0
 11 12  1  0  0  0  0
 11 38  1  0  0  0  0
 11 56  1  0  0  0  0
 12 13  1  0  0  0  0
 12 15  1  0  0  0  0
 12 57  1  0  0  0  0
 13 14  1  0  0  0  0
 13 58  1  0  0  0  0
 14 59  1  0  0  0  0
 15 16  1  0  0  0  0
 16 17  1  0  0  0  0
 16 34  1  0  0  0  0
 16 60  1  0  0  0  0
 17 18  1  0  0  0  0
 18 19  1  0  0  0  0
 18 32  1  0  0  0  0
 18 61  1  0  0  0  0
 19 20  1  0  0  0  0
 19 62  1  0  0  0  0
 19 63  1  0  0  0  0
 20 21  1  0  0  0  0
 21 22  1  0  0  0  0
 21 28  1  0  0  0  0
 21 64  1  0  0  0  0
 22 23  1  0  0  0  0
 23 24  1  0  0  0  0
 23 26  1  0  0  0  0
 23 65  1  0  0  0  0
 24 25  1  0  0  0  0
 24 66  1  0  0  0  0
 24 67  1  0  0  0  0
 25 68  1  0  0  0  0
 26 27  1  0  0  0  0
 26 31  1  0  0  0  0
 26 69  1  0  0  0  0
 27 28  1  0  0  0  0
 27 30  1  0  0  0  0
 27 70  1  0  0  0  0
 28 29  1  0  0  0  0
 28 71  1  0  0  0  0
 29 72  1  0  0  0  0
 29 73  1  0  0  0  0
 30 74  1  0  0  0  0
 31 75  1  0  0  0  0
 32 33  1  0  0  0  0
 32 37  1  0  0  0  0
 32 76  1  0  0  0  0
 33 34  1  0  0  0  0
 33 36  1  0  0  0  0
 33 77  1  0  0  0  0
 34 35  1  0  0  0  0
 34 78  1  0  0  0  0
 35 79  1  0  0  0  0
 35 80  1  0  0  0  0
 36 81  1  0  0  0  0
 37 82  1  0  0  0  0
 38 83  1  0  0  0  0
 38 84  1  0  0  0  0
 39 40  1  0  0  0  0
 39 43  1  0  0  0  0
 39 85  1  0  0  0  0
 40 41  1  0  0  0  0
 40 86  1  0  0  0  0
 40 87  1  0  0  0  0
 41 42  1  0  0  0  0
 41 88  1  0  0  0  0
 42 89  1  0  0  0  0
 43 90  1  0  0  0  0
 43 91  1  0  0  0  0
M  END
$$$$
Target_lig_1221
 OpenBabel04172516583D

 44 47  0  0  1  0  0  0  0  0999 V2000
    2.9709   -0.9843   -0.9206 C   0  0  0  0  0  0  0  0  0  0  0  0
    2.3517   -0.0904   -0.1394 C   0  0  0  0  0  0  0  0  0  0  0  0
    3.0647    0.8311    0.8229 C   0  0  3  0  0  0  0  0  0  0  0  0
    2.5801    0.6373    2.2844 C   0  0  0  0  0  0  0  0  0  0  0  0
    2.1936    1.9239    2.9220 N   0  0  3  0  0  0  0  0  0  0  0  0
    1.0546    2.4719    2.1440 C   0  0  0  0  0  0  0  0  0  0  0  0
    1.4469    2.7828    0.6909 C   0  0  0  0  0  0  0  0  0  0  0  0
    2.8930    2.3251    0.4437 C   0  0  3  0  0  0  0  0  0  0  0  0
    3.7847    3.1346    1.4021 C   0  0  0  0  0  0  0  0  0  0  0  0
    3.3319    2.8988    2.8655 C   0  0  3  0  0  0  0  0  0  0  0  0
    4.5434    2.5169    3.7903 C   0  0  3  0  0  0  0  0  0  0  0  0
    5.6050    3.6013    3.8869 C   0  0  0  0  0  0  0  0  0  0  0  0
    5.2251    4.8575    4.3864 C   0  0  0  0  0  0  0  0  0  0  0  0
    6.1782    5.8487    4.5022 C   0  0  0  0  0  0  0  0  0  0  0  0
    7.4649    5.6834    4.1676 N   0  0  0  0  0  0  0  0  0  0  0  0
    7.8509    4.4872    3.7009 C   0  0  0  0  0  0  0  0  0  0  0  0
    9.1915    4.3296    3.3825 C   0  0  0  0  0  0  0  0  0  0  0  0
    9.7017    3.1319    2.8875 C   0  0  0  0  0  0  0  0  0  0  0  0
    8.8483    2.0525    2.6938 C   0  0  0  0  0  0  0  0  0  0  0  0
    7.5015    2.1804    3.0146 C   0  0  0  0  0  0  0  0  0  0  0  0
    6.9648    3.3919    3.5267 C   0  0  0  0  0  0  0  0  0  0  0  0
    4.1391    2.2494    5.1371 O   0  0  0  0  0  0  0  0  0  0  0  0
    2.4025   -1.6216   -1.5921 H   0  0  0  0  0  0  0  0  0  0  0  0
    4.0499   -1.1054   -0.9135 H   0  0  0  0  0  0  0  0  0  0  0  0
    1.2665   -0.0227   -0.1911 H   0  0  0  0  0  0  0  0  0  0  0  0
    4.1392    0.6013    0.7944 H   0  0  0  0  0  0  0  0  0  0  0  0
    3.3684    0.1530    2.8726 H   0  0  0  0  0  0  0  0  0  0  0  0
    1.7321   -0.0584    2.3393 H   0  0  0  0  0  0  0  0  0  0  0  0
    0.6710    3.3773    2.6293 H   0  0  0  0  0  0  0  0  0  0  0  0
    0.2186    1.7596    2.1567 H   0  0  0  0  0  0  0  0  0  0  0  0
    1.3656    3.8611    0.5089 H   0  0  0  0  0  0  0  0  0  0  0  0
    0.7563    2.2939   -0.0047 H   0  0  0  0  0  0  0  0  0  0  0  0
    3.1880    2.5111   -0.5959 H   0  0  0  0  0  0  0  0  0  0  0  0
    3.7097    4.2030    1.1657 H   0  0  0  0  0  0  0  0  0  0  0  0
    4.8302    2.8453    1.2479 H   0  0  0  0  0  0  0  0  0  0  0  0
    2.9200    3.8408    3.2532 H   0  0  0  0  0  0  0  0  0  0  0  0
    4.9705    1.5858    3.4200 H   0  0  0  0  0  0  0  0  0  0  0  0
    4.2082    5.0616    4.6999 H   0  0  0  0  0  0  0  0  0  0  0  0
    5.9163    6.8339    4.8815 H   0  0  0  0  0  0  0  0  0  0  0  0
    9.8609    5.1718    3.5330 H   0  0  0  0  0  0  0  0  0  0  0  0
   10.7628    3.0477    2.6593 H   0  0  0  0  0  0  0  0  0  0  0  0
    9.2409    1.1153    2.3141 H   0  0  0  0  0  0  0  0  0  0  0  0
    6.8806    1.3062    2.8588 H   0  0  0  0  0  0  0  0  0  0  0  0
    3.2523    2.6280    5.2516 H   0  0  0  0  0  0  0  0  0  0  0  0
  1  2  2  0  0  0  0
  1 23  1  0  0  0  0
  1 24  1  0  0  0  0
  2  3  1  0  0  0  0
  2 25  1  0  0  0  0
  3  4  1  0  0  0  0
  3  8  1  0  0  0  0
  3 26  1  0  0  0  0
  4  5  1  0  0  0  0
  4 27  1  0  0  0  0
  4 28  1  0  0  0  0
  5  6  1  0  0  0  0
  5 10  1  0  0  0  0
  6  7  1  0  0  0  0
  6 29  1  0  0  0  0
  6 30  1  0  0  0  0
  7  8  1  0  0  0  0
  7 31  1  0  0  0  0
  7 32  1  0  0  0  0
  8  9  1  0  0  0  0
  8 33  1  0  0  0  0
  9 10  1  0  0  0  0
  9 34  1  0  0  0  0
  9 35  1  0  0  0  0
 10 11  1  0  0  0  0
 10 36  1  0  0  0  0
 11 12  1  0  0  0  0
 11 22  1  0  0  0  0
 11 37  1  0  0  0  0
 12 13  2  0  0  0  0
 12 21  1  0  0  0  0
 13 14  1  0  0  0  0
 13 38  1  0  0  0  0
 14 15  2  0  0  0  0
 14 39  1  0  0  0  0
 15 16  1  0  0  0  0
 16 17  2  0  0  0  0
 16 21  1  0  0  0  0
 17 18  1  0  0  0  0
 17 40  1  0  0  0  0
 18 19  2  0  0  0  0
 18 41  1  0  0  0  0
 19 20  1  0  0  0  0
 19 42  1  0  0  0  0
 20 21  2  0  0  0  0
 20 43  1  0  0  0  0
 22 44  1  0  0  0  0
M  END
$$$$
Target_lig_1222
 OpenBabel04172516583D

 29 29  0  0  0  0  0  0  0  0999 V2000
    2.3275   -1.5044   -0.4194 C   0  0  0  0  0  0  0  0  0  0  0  0
    3.0089   -0.7557   -1.5486 C   0  0  0  0  0  0  0  0  0  0  0  0
    3.7672    0.4720   -1.0484 C   0  0  0  0  0  0  0  0  0  0  0  0
    4.4427    1.1644   -2.2198 C   0  0  0  0  0  0  0  0  0  0  0  0
    5.0730    2.3778   -1.8096 O   0  0  0  0  0  0  0  0  0  0  0  0
    6.4128    2.4044   -2.0105 C   0  0  0  0  0  0  0  0  0  0  0  0
    7.1883    1.4873   -1.7985 O   0  0  0  0  0  0  0  0  0  0  0  0
    6.7691    3.6614   -2.7224 C   0  0  0  0  0  0  0  0  0  0  0  0
    8.0866    3.8425   -3.1524 C   0  0  0  0  0  0  0  0  0  0  0  0
    8.4203    4.9570   -3.9303 C   0  0  0  0  0  0  0  0  0  0  0  0
    7.4410    5.8744   -4.3245 C   0  0  0  0  0  0  0  0  0  0  0  0
    6.1417    5.7216   -3.8387 C   0  0  0  0  0  0  0  0  0  0  0  0
    5.7994    4.6158   -3.0588 C   0  0  0  0  0  0  0  0  0  0  0  0
    7.7986    7.0442   -5.0014 N   0  0  0  0  0  0  0  0  0  0  0  0
    1.8053   -2.3816   -0.8137 H   0  0  0  0  0  0  0  0  0  0  0  0
    1.5934   -0.8685    0.0848 H   0  0  0  0  0  0  0  0  0  0  0  0
    3.0585   -1.8460    0.3196 H   0  0  0  0  0  0  0  0  0  0  0  0
    2.2540   -0.4494   -2.2832 H   0  0  0  0  0  0  0  0  0  0  0  0
    3.7005   -1.4325   -2.0638 H   0  0  0  0  0  0  0  0  0  0  0  0
    4.5198    0.1881   -0.3035 H   0  0  0  0  0  0  0  0  0  0  0  0
    3.0851    1.1689   -0.5459 H   0  0  0  0  0  0  0  0  0  0  0  0
    3.6869    1.4564   -2.9578 H   0  0  0  0  0  0  0  0  0  0  0  0
    5.1402    0.4879   -2.7283 H   0  0  0  0  0  0  0  0  0  0  0  0
    8.8553    3.1157   -2.8954 H   0  0  0  0  0  0  0  0  0  0  0  0
    9.4531    5.0919   -4.2420 H   0  0  0  0  0  0  0  0  0  0  0  0
    5.3744    6.4534   -4.0783 H   0  0  0  0  0  0  0  0  0  0  0  0
    4.7671    4.5073   -2.7361 H   0  0  0  0  0  0  0  0  0  0  0  0
    8.6298    6.9521   -5.5734 H   0  0  0  0  0  0  0  0  0  0  0  0
    7.0310    7.4798   -5.5054 H   0  0  0  0  0  0  0  0  0  0  0  0
  1  2  1  0  0  0  0
  1 15  1  0  0  0  0
  1 16  1  0  0  0  0
  1 17  1  0  0  0  0
  2  3  1  0  0  0  0
  2 18  1  0  0  0  0
  2 19  1  0  0  0  0
  3  4  1  0  0  0  0
  3 20  1  0  0  0  0
  3 21  1  0  0  0  0
  4  5  1  0  0  0  0
  4 22  1  0  0  0  0
  4 23  1  0  0  0  0
  5  6  1  0  0  0  0
  6  7  2  0  0  0  0
  6  8  1  0  0  0  0
  8  9  2  0  0  0  0
  8 13  1  0  0  0  0
  9 10  1  0  0  0  0
  9 24  1  0  0  0  0
 10 11  2  0  0  0  0
 10 25  1  0  0  0  0
 11 12  1  0  0  0  0
 11 14  1  0  0  0  0
 12 13  2  0  0  0  0
 12 26  1  0  0  0  0
 13 27  1  0  0  0  0
 14 28  1  0  0  0  0
 14 29  1  0  0  0  0
M  END
$$$$
Target_lig_1223
 OpenBabel04172516583D

 63 67  0  0  1  0  0  0  0  0999 V2000
    2.0029    1.2920   -2.9166 C   0  0  0  0  0  0  0  0  0  0  0  0
    1.3280    0.3904   -1.8845 C   0  0  3  0  0  0  0  0  0  0  0  0
    1.7161    0.7033   -0.4323 C   0  0  3  0  0  0  0  0  0  0  0  0
    3.1915    0.3263   -0.1803 C   0  0  3  0  0  0  0  0  0  0  0  0
    3.4678   -1.1158   -0.6163 C   0  0  0  0  0  0  0  0  0  0  0  0
    2.9310   -1.4108   -2.0176 C   0  0  3  0  0  0  0  0  0  0  0  0
    1.5731   -0.9994   -2.1419 O   0  0  0  0  0  0  0  0  0  0  0  0
    3.0632   -2.8288   -2.2307 O   0  0  0  0  0  0  0  0  0  0  0  0
    2.6094   -3.3409   -3.5019 C   0  0  3  0  0  0  0  0  0  0  0  0
    3.3464   -2.7195   -4.6932 C   0  0  0  0  0  0  0  0  0  0  0  0
    2.5388   -2.7080   -5.9887 C   0  0  3  0  0  0  0  0  0  0  0  0
    1.1177   -2.1588   -5.7667 C   0  0  0  0  0  0  0  0  0  0  0  0
    0.3846   -2.8003   -4.6060 C   0  0  0  0  0  0  0  0  0  0  0  0
    1.0929   -3.3819   -3.5436 C   0  0  0  0  0  0  0  0  0  0  0  0
    0.3681   -3.9940   -2.4899 C   0  0  0  0  0  0  0  0  0  0  0  0
   -1.0347   -3.9761   -2.4461 C   0  0  0  0  0  0  0  0  0  0  0  0
   -1.7307   -3.3483   -3.4777 C   0  0  0  0  0  0  0  0  0  0  0  0
   -1.0185   -2.7652   -4.5479 C   0  0  0  0  0  0  0  0  0  0  0  0
   -1.6597   -2.1236   -5.5798 O   0  0  0  0  0  0  0  0  0  0  0  0
   -3.2085   -3.2916   -3.4561 C   0  0  0  0  0  0  0  0  0  0  0  0
   -3.8067   -2.7245   -4.3679 O   0  0  0  0  0  0  0  0  0  0  0  0
   -3.9547   -3.9147   -2.3538 C   0  0  0  0  0  0  0  0  0  0  0  0
   -5.3582   -3.8785   -2.3484 C   0  0  0  0  0  0  0  0  0  0  0  0
   -6.0687   -4.4592   -1.2963 C   0  0  0  0  0  0  0  0  0  0  0  0
   -5.3858   -5.0737   -0.2486 C   0  0  0  0  0  0  0  0  0  0  0  0
   -3.9900   -5.1094   -0.2567 C   0  0  0  0  0  0  0  0  0  0  0  0
   -3.2713   -4.5314   -1.3132 C   0  0  0  0  0  0  0  0  0  0  0  0
   -1.7963   -4.5716   -1.3045 C   0  0  0  0  0  0  0  0  0  0  0  0
   -1.2470   -5.0818   -0.3363 O   0  0  0  0  0  0  0  0  0  0  0  0
    1.0715   -4.6194   -1.4933 O   0  0  0  0  0  0  0  0  0  0  0  0
    3.2374   -1.7707   -7.0060 C   0  0  0  0  0  0  0  0  0  0  0  0
    3.8925   -0.7840   -6.6464 O   0  0  0  0  0  0  0  0  0  0  0  0
    3.0231   -2.0198   -8.4790 C   0  0  0  0  0  0  0  0  0  0  0  0
    2.4982   -4.0425   -6.4994 O   0  0  0  0  0  0  0  0  0  0  0  0
    3.5639    0.4657    1.2373 N   0  0  0  0  0  0  0  0  0  0  0  0
    0.8756   -0.0620    0.4509 O   0  0  0  0  0  0  0  0  0  0  0  0
    1.7580    2.3431   -2.7388 H   0  0  0  0  0  0  0  0  0  0  0  0
    1.6783    1.0193   -3.9263 H   0  0  0  0  0  0  0  0  0  0  0  0
    3.0927    1.2012   -2.9099 H   0  0  0  0  0  0  0  0  0  0  0  0
    0.2431    0.5173   -1.9884 H   0  0  0  0  0  0  0  0  0  0  0  0
    1.5391    1.7605   -0.2039 H   0  0  0  0  0  0  0  0  0  0  0  0
    3.8337    1.0033   -0.7557 H   0  0  0  0  0  0  0  0  0  0  0  0
    3.0146   -1.8201    0.0932 H   0  0  0  0  0  0  0  0  0  0  0  0
    4.5465   -1.3188   -0.5941 H   0  0  0  0  0  0  0  0  0  0  0  0
    3.5530   -0.8773   -2.7364 H   0  0  0  0  0  0  0  0  0  0  0  0
    2.9101   -4.3982   -3.4978 H   0  0  0  0  0  0  0  0  0  0  0  0
    4.2714   -3.2978   -4.8461 H   0  0  0  0  0  0  0  0  0  0  0  0
    3.6986   -1.7153   -4.4655 H   0  0  0  0  0  0  0  0  0  0  0  0
    0.5427   -2.3295   -6.6859 H   0  0  0  0  0  0  0  0  0  0  0  0
    1.1450   -1.0755   -5.5871 H   0  0  0  0  0  0  0  0  0  0  0  0
   -2.6303   -2.1485   -5.4124 H   0  0  0  0  0  0  0  0  0  0  0  0
   -5.9010   -3.3979   -3.1582 H   0  0  0  0  0  0  0  0  0  0  0  0
   -7.1569   -4.4306   -1.2921 H   0  0  0  0  0  0  0  0  0  0  0  0
   -5.9362   -5.5243    0.5740 H   0  0  0  0  0  0  0  0  0  0  0  0
   -3.4641   -5.5891    0.5688 H   0  0  0  0  0  0  0  0  0  0  0  0
    1.9412   -4.1881   -1.3906 H   0  0  0  0  0  0  0  0  0  0  0  0
    2.4139   -2.9041   -8.6583 H   0  0  0  0  0  0  0  0  0  0  0  0
    3.9962   -2.1574   -8.9584 H   0  0  0  0  0  0  0  0  0  0  0  0
    2.5122   -1.1552   -8.9130 H   0  0  0  0  0  0  0  0  0  0  0  0
    1.8662   -4.5625   -5.9719 H   0  0  0  0  0  0  0  0  0  0  0  0
    2.8858   -0.0739    1.7858 H   0  0  0  0  0  0  0  0  0  0  0  0
    3.4090    1.4285    1.5371 H   0  0  0  0  0  0  0  0  0  0  0  0
    0.7840   -0.9519    0.0593 H   0  0  0  0  0  0  0  0  0  0  0  0
  1  2  1  0  0  0  0
  1 37  1  0  0  0  0
  1 38  1  0  0  0  0
  1 39  1  0  0  0  0
  2  3  1  0  0  0  0
  2  7  1  0  0  0  0
  2 40  1  0  0  0  0
  3  4  1  0  0  0  0
  3 36  1  0  0  0  0
  3 41  1  0  0  0  0
  4  5  1  0  0  0  0
  4 35  1  0  0  0  0
  4 42  1  0  0  0  0
  5  6  1  0  0  0  0
  5 43  1  0  0  0  0
  5 44  1  0  0  0  0
  6  7  1  0  0  0  0
  6  8  1  0  0  0  0
  6 45  1  0  0  0  0
  8  9  1  0  0  0  0
  9 10  1  0  0  0  0
  9 14  1  0  0  0  0
  9 46  1  0  0  0  0
 10 11  1  0  0  0  0
 10 47  1  0  0  0  0
 10 48  1  0  0  0  0
 11 12  1  0  0  0  0
 11 31  1  0  0  0  0
 11 34  1  0  0  0  0
 12 13  1  0  0  0  0
 12 49  1  0  0  0  0
 12 50  1  0  0  0  0
 13 14  2  0  0  0  0
 13 18  1  0  0  0  0
 14 15  1  0  0  0  0
 15 16  2  0  0  0  0
 15 30  1  0  0  0  0
 16 17  1  0  0  0  0
 16 28  1  0  0  0  0
 17 18  2  0  0  0  0
 17 20  1  0  0  0  0
 18 19  1  0  0  0  0
 19 51  1  0  0  0  0
 20 21  2  0  0  0  0
 20 22  1  0  0  0  0
 22 23  2  0  0  0  0
 22 27  1  0  0  0  0
 23 24  1  0  0  0  0
 23 52  1  0  0  0  0
 24 25  2  0  0  0  0
 24 53  1  0  0  0  0
 25 26  1  0  0  0  0
 25 54  1  0  0  0  0
 26 27  2  0  0  0  0
 26 55  1  0  0  0  0
 27 28  1  0  0  0  0
 28 29  2  0  0  0  0
 30 56  1  0  0  0  0
 31 32  2  0  0  0  0
 31 33  1  0  0  0  0
 33 57  1  0  0  0  0
 33 58  1  0  0  0  0
 33 59  1  0  0  0  0
 34 60  1  0  0  0  0
 35 61  1  0  0  0  0
 35 62  1  0  0  0  0
 36 63  1  0  0  0  0
M  END
$$$$
Target_lig_1224
 OpenBabel04172516583D

158165  0  0  1  0  0  0  0  0999 V2000
    6.6113   16.0666   -2.0473 N   0  0  0  0  0  0  0  0  0  0  0  0
    5.9287   15.9221   -0.7642 C   0  0  0  0  0  0  0  0  0  0  0  0
    6.5819   14.7947    0.0385 C   0  0  0  0  0  0  0  0  0  0  0  0
    5.9663   14.6415    1.4247 C   0  0  0  0  0  0  0  0  0  0  0  0
    6.6600   13.6512    2.2447 N   0  0  0  0  0  0  0  0  0  0  0  0
    6.1769   13.4079    3.5052 C   0  0  0  0  0  0  0  0  0  0  0  0
    5.1206   13.9449    3.8753 O   0  0  0  0  0  0  0  0  0  0  0  0
    6.7210   12.2215    4.3412 C   0  0  2  0  0  0  0  0  0  0  0  0
    8.0792   11.5573    4.0073 C   0  0  0  0  0  0  0  0  0  0  0  0
    9.3452   12.3522    4.3108 C   0  0  0  0  0  0  0  0  0  0  0  0
    9.4184   13.1513    5.4555 C   0  0  0  0  0  0  0  0  0  0  0  0
   10.6166   13.7269    5.8861 C   0  0  0  0  0  0  0  0  0  0  0  0
   11.7736   13.5530    5.1429 C   0  0  0  0  0  0  0  0  0  0  0  0
   11.7267   12.7918    3.9771 C   0  0  0  0  0  0  0  0  0  0  0  0
   10.5277   12.1766    3.5739 C   0  0  0  0  0  0  0  0  0  0  0  0
    5.5469   11.3516    4.2185 N   0  0  0  0  0  0  0  0  0  0  0  0
    5.2561   10.2788    5.0329 C   0  0  0  0  0  0  0  0  0  0  0  0
    6.1110    9.6853    5.6678 O   0  0  0  0  0  0  0  0  0  0  0  0
    3.8600    9.6877    4.7225 C   0  0  2  0  0  0  0  0  0  0  0  0
    4.0305    9.0020    3.3551 C   0  0  0  0  0  0  0  0  0  0  0  0
    2.6226    8.9574    2.7988 C   0  0  0  0  0  0  0  0  0  0  0  0
    1.9100   10.1958    3.3821 C   0  0  0  0  0  0  0  0  0  0  0  0
    2.6883   10.6251    4.5241 N   0  0  0  0  0  0  0  0  0  0  0  0
    2.2751   11.4916    5.5704 C   0  0  0  0  0  0  0  0  0  0  0  0
    3.0018   11.5098    6.5772 O   0  0  0  0  0  0  0  0  0  0  0  0
    0.9427   12.5105    5.5975 C   0  0  2  0  0  0  0  0  0  0  0  0
   -0.4558   11.9446    5.9751 N   0  0  0  0  0  0  0  0  0  0  0  0
   -1.5280   12.7562    6.4681 C   0  0  0  0  0  0  0  0  0  0  0  0
   -1.3864   13.9629    6.6454 O   0  0  0  0  0  0  0  0  0  0  0  0
   -2.9973   12.2192    6.8058 C   0  0  0  0  0  0  0  0  0  0  0  0
   -4.0073   13.0964    6.3134 C   0  0  0  0  0  0  0  0  0  0  0  0
   -4.1715   13.1435    4.9021 C   0  0  0  0  0  0  0  0  0  0  0  0
   -4.5116   14.2458    4.0746 C   0  0  0  0  0  0  0  0  0  0  0  0
   -3.8867   14.3652    2.8489 C   0  0  0  0  0  0  0  0  0  0  0  0
   -2.9875   13.3528    2.4829 C   0  0  0  0  0  0  0  0  0  0  0  0
   -2.9267   12.1650    3.2388 C   0  0  0  0  0  0  0  0  0  0  0  0
   -3.6585   11.9868    4.3466 C   0  0  0  0  0  0  0  0  0  0  0  0
   -3.5051   10.8269    5.0064 N   0  0  0  0  0  0  0  0  0  0  0  0
   -3.2389   10.9667    6.3146 C   0  0  0  0  0  0  0  0  0  0  0  0
   -3.7465    9.8762    7.1986 C   0  0  0  0  0  0  0  0  0  0  0  0
    0.9759   13.5157    4.3985 C   0  0  0  0  0  0  0  0  0  0  0  0
    0.2284   15.2775    4.5588 S   0  0  0  0  0  0  0  0  0  0  0  0
    1.5238   16.4673    5.7265 S   0  0  0  0  0  0  0  0  0  0  0  0
    0.5030   17.4993    6.9637 C   0  0  0  0  0  0  0  0  0  0  0  0
    1.1125   17.7504    8.4713 C   0  0  1  0  0  0  0  0  0  0  0  0
    0.9511   16.2567    9.2357 C   0  0  0  0  0  0  0  0  0  0  0  0
    0.3973   15.3773    8.5471 O   0  0  0  0  0  0  0  0  0  0  0  0
    1.0959   15.8801   10.5730 N   0  0  0  0  0  0  0  0  0  0  0  0
    0.5528   14.5506   10.9805 C   0  0  0  0  0  0  0  0  0  0  0  0
    0.0877   14.7241   12.4171 C   0  0  0  0  0  0  0  0  0  0  0  0
    1.0910   15.7096   12.9881 C   0  0  0  0  0  0  0  0  0  0  0  0
    1.7552   16.4586   11.7499 C   0  0  1  0  0  0  0  0  0  0  0  0
    3.2511   16.0535   11.9272 C   0  0  0  0  0  0  0  0  0  0  0  0
    3.8603   16.2103   13.0093 O   0  0  0  0  0  0  0  0  0  0  0  0
    3.8735   15.5477   10.8032 N   0  0  0  0  0  0  0  0  0  0  0  0
    5.2460   15.0023   10.8576 C   0  0  2  0  0  0  0  0  0  0  0  0
    6.3986   15.9674   10.4808 C   0  0  0  0  0  0  0  0  0  0  0  0
    6.7419   16.1707    9.3097 O   0  0  0  0  0  0  0  0  0  0  0  0
    6.9501   16.6439   11.5671 N   0  0  0  0  0  0  0  0  0  0  0  0
    7.8908   17.7275   11.3362 C   0  0  0  0  0  0  0  0  0  0  0  0
    7.2487   18.8072   10.5136 C   0  0  0  0  0  0  0  0  0  0  0  0
    5.9316   19.2563   11.1024 C   0  0  0  0  0  0  0  0  0  0  0  0
    4.8420   18.3206   11.3198 N   0  0  0  0  0  0  0  0  0  0  0  0
    5.3143   13.8185    9.8920 C   0  0  0  0  0  0  0  0  0  0  0  0
    6.6416   13.1022    9.9195 C   0  0  0  0  0  0  0  0  0  0  0  0
    7.1196   12.5228   11.1004 C   0  0  0  0  0  0  0  0  0  0  0  0
    8.3587   11.8862   11.1242 C   0  0  0  0  0  0  0  0  0  0  0  0
    9.1233   11.8144    9.9680 C   0  0  0  0  0  0  0  0  0  0  0  0
    8.6525   12.3828    8.7926 C   0  0  0  0  0  0  0  0  0  0  0  0
    7.4235   13.0383    8.7633 C   0  0  0  0  0  0  0  0  0  0  0  0
    2.0609   19.0593    8.5606 N   0  0  0  0  0  0  0  0  0  0  0  0
    3.2848   19.3294    7.8911 C   0  0  0  0  0  0  0  0  0  0  0  0
    3.8698   18.3742    7.3803 O   0  0  0  0  0  0  0  0  0  0  0  0
    4.0286   20.7878    7.8508 C   0  0  0  0  0  0  0  0  0  0  0  0
    3.6229   22.1325    8.2565 C   0  0  0  0  0  0  0  0  0  0  0  0
    4.3232   22.8976    9.3753 C   0  0  0  0  0  0  0  0  0  0  0  0
    4.0441   23.9304   10.3793 C   0  0  0  0  0  0  0  0  0  0  0  0
    3.3816   23.5529   11.5590 C   0  0  0  0  0  0  0  0  0  0  0  0
    3.1366   22.2165   11.6696 C   0  0  0  0  0  0  0  0  0  0  0  0
    3.9690   21.4281   10.8811 C   0  0  0  0  0  0  0  0  0  0  0  0
    4.9684   21.9580    9.9915 C   0  0  0  0  0  0  0  0  0  0  0  0
    5.8793   21.3544    9.1231 N   0  0  0  0  0  0  0  0  0  0  0  0
    5.3856   20.6844    8.0570 C   0  0  0  0  0  0  0  0  0  0  0  0
    6.3440   19.9022    7.2262 C   0  0  0  0  0  0  0  0  0  0  0  0
    6.1747   16.8112   -2.5894 H   0  0  0  0  0  0  0  0  0  0  0  0
    6.5069   15.2134   -2.5948 H   0  0  0  0  0  0  0  0  0  0  0  0
    4.8663   15.7155   -0.9383 H   0  0  0  0  0  0  0  0  0  0  0  0
    5.9970   16.8698   -0.2188 H   0  0  0  0  0  0  0  0  0  0  0  0
    7.6536   14.9962    0.1481 H   0  0  0  0  0  0  0  0  0  0  0  0
    6.4868   13.8469   -0.5067 H   0  0  0  0  0  0  0  0  0  0  0  0
    4.9165   14.3302    1.3302 H   0  0  0  0  0  0  0  0  0  0  0  0
    5.9708   15.5954    1.9643 H   0  0  0  0  0  0  0  0  0  0  0  0
    7.6397   13.4623    2.0657 H   0  0  0  0  0  0  0  0  0  0  0  0
    6.7208   12.5478    5.3847 H   0  0  0  0  0  0  0  0  0  0  0  0
    8.1781   10.6547    4.6298 H   0  0  0  0  0  0  0  0  0  0  0  0
    8.0973   11.1962    2.9723 H   0  0  0  0  0  0  0  0  0  0  0  0
    8.5452   13.2944    6.0789 H   0  0  0  0  0  0  0  0  0  0  0  0
   10.6391   14.2822    6.8219 H   0  0  0  0  0  0  0  0  0  0  0  0
   12.7058   13.9970    5.4829 H   0  0  0  0  0  0  0  0  0  0  0  0
   12.6374   12.6544    3.3987 H   0  0  0  0  0  0  0  0  0  0  0  0
   10.5501   11.5339    2.6965 H   0  0  0  0  0  0  0  0  0  0  0  0
    4.6846   11.8498    3.9794 H   0  0  0  0  0  0  0  0  0  0  0  0
    3.6004    8.9627    5.5013 H   0  0  0  0  0  0  0  0  0  0  0  0
    4.4968    8.0099    3.4247 H   0  0  0  0  0  0  0  0  0  0  0  0
    4.6625    9.5753    2.6595 H   0  0  0  0  0  0  0  0  0  0  0  0
    2.1424    8.0298    3.1271 H   0  0  0  0  0  0  0  0  0  0  0  0
    2.6265    8.9511    1.7022 H   0  0  0  0  0  0  0  0  0  0  0  0
    0.9035    9.9414    3.7003 H   0  0  0  0  0  0  0  0  0  0  0  0
    1.8865   11.0072    2.6516 H   0  0  0  0  0  0  0  0  0  0  0  0
    1.1844   13.1369    6.4671 H   0  0  0  0  0  0  0  0  0  0  0  0
   -0.4358   11.0139    6.3705 H   0  0  0  0  0  0  0  0  0  0  0  0
   -4.5396   13.7652    6.9724 H   0  0  0  0  0  0  0  0  0  0  0  0
   -5.0467   15.1307    4.4757 H   0  0  0  0  0  0  0  0  0  0  0  0
   -3.9863   15.2406    2.2504 H   0  0  0  0  0  0  0  0  0  0  0  0
   -2.2670   13.4980    1.6778 H   0  0  0  0  0  0  0  0  0  0  0  0
   -2.1088   11.4554    3.0772 H   0  0  0  0  0  0  0  0  0  0  0  0
   -4.8455    9.8856    7.2377 H   0  0  0  0  0  0  0  0  0  0  0  0
   -3.3673    9.9818    8.2201 H   0  0  0  0  0  0  0  0  0  0  0  0
   -3.4280    8.9101    6.8038 H   0  0  0  0  0  0  0  0  0  0  0  0
    0.4640   13.0456    3.5459 H   0  0  0  0  0  0  0  0  0  0  0  0
    2.0063   13.6834    4.0618 H   0  0  0  0  0  0  0  0  0  0  0  0
   -0.4839   17.0158    7.0470 H   0  0  0  0  0  0  0  0  0  0  0  0
    0.3032   18.4771    6.5042 H   0  0  0  0  0  0  0  0  0  0  0  0
    0.2441   18.2254    8.9645 H   0  0  0  0  0  0  0  0  0  0  0  0
    1.3723   13.8205   10.9444 H   0  0  0  0  0  0  0  0  0  0  0  0
   -0.2674   14.1775   10.3605 H   0  0  0  0  0  0  0  0  0  0  0  0
    0.0623   13.7749   12.9712 H   0  0  0  0  0  0  0  0  0  0  0  0
   -0.9214   15.1489   12.4644 H   0  0  0  0  0  0  0  0  0  0  0  0
    1.8080   15.1232   13.5931 H   0  0  0  0  0  0  0  0  0  0  0  0
    0.6149   16.3996   13.6907 H   0  0  0  0  0  0  0  0  0  0  0  0
    1.6284   17.5247   11.7956 H   0  0  0  0  0  0  0  0  0  0  0  0
    3.3882   15.5750    9.9137 H   0  0  0  0  0  0  0  0  0  0  0  0
    5.4404   14.6713   11.8870 H   0  0  0  0  0  0  0  0  0  0  0  0
    6.2133   16.8930   12.2323 H   0  0  0  0  0  0  0  0  0  0  0  0
    8.7692   17.3439   10.8107 H   0  0  0  0  0  0  0  0  0  0  0  0
    8.1958   18.1410   12.3029 H   0  0  0  0  0  0  0  0  0  0  0  0
    7.0720   18.4290    9.5095 H   0  0  0  0  0  0  0  0  0  0  0  0
    7.9088   19.6734   10.3773 H   0  0  0  0  0  0  0  0  0  0  0  0
    5.5095   19.7668   10.2856 H   0  0  0  0  0  0  0  0  0  0  0  0
    6.0693   19.9184   11.9508 H   0  0  0  0  0  0  0  0  0  0  0  0
    4.5856   17.9335   10.4018 H   0  0  0  0  0  0  0  0  0  0  0  0
    4.0197   18.8156   11.6502 H   0  0  0  0  0  0  0  0  0  0  0  0
    5.0929   14.1720    8.8742 H   0  0  0  0  0  0  0  0  0  0  0  0
    4.5257   13.1010   10.1374 H   0  0  0  0  0  0  0  0  0  0  0  0
    6.5343   12.5699   12.0150 H   0  0  0  0  0  0  0  0  0  0  0  0
    8.7258   11.4457   12.0433 H   0  0  0  0  0  0  0  0  0  0  0  0
   10.0864   11.3142    9.9712 H   0  0  0  0  0  0  0  0  0  0  0  0
    9.2634   12.2972    7.9056 H   0  0  0  0  0  0  0  0  0  0  0  0
    7.0790   13.5171    7.8479 H   0  0  0  0  0  0  0  0  0  0  0  0
    1.6112   19.8692    8.9655 H   0  0  0  0  0  0  0  0  0  0  0  0
    3.7374   22.8351    7.3874 H   0  0  0  0  0  0  0  0  0  0  0  0
    4.8215   24.6936   10.5922 H   0  0  0  0  0  0  0  0  0  0  0  0
    3.1780   24.2185   12.3936 H   0  0  0  0  0  0  0  0  0  0  0  0
    2.4012   21.7874   12.3391 H   0  0  0  0  0  0  0  0  0  0  0  0
    3.6484   20.4040   10.7399 H   0  0  0  0  0  0  0  0  0  0  0  0
    7.2226   20.5200    6.9976 H   0  0  0  0  0  0  0  0  0  0  0  0
    5.9058   19.5956    6.2740 H   0  0  0  0  0  0  0  0  0  0  0  0
    6.7030   18.9900    7.7102 H   0  0  0  0  0  0  0  0  0  0  0  0
  1  2  1  0  0  0  0
  1 85  1  0  0  0  0
  1 86  1  0  0  0  0
  2  3  1  0  0  0  0
  2 87  1  0  0  0  0
  2 88  1  0  0  0  0
  3  4  1  0  0  0  0
  3 89  1  0  0  0  0
  3 90  1  0  0  0  0
  4  5  1  0  0  0  0
  4 91  1  0  0  0  0
  4 92  1  0  0  0  0
  5  6  1  0  0  0  0
  5 93  1  0  0  0  0
  6  7  2  0  0  0  0
  8 16  1  0  0  0  0
  8  9  1  0  0  0  0
  8  6  1  0  0  0  0
  8 94  1  1  0  0  0
  9 10  1  0  0  0  0
  9 95  1  0  0  0  0
  9 96  1  0  0  0  0
 10 11  1  0  0  0  0
 10 15  2  0  0  0  0
 11 12  2  0  0  0  0
 11 97  1  0  0  0  0
 12 13  1  0  0  0  0
 12 98  1  0  0  0  0
 13 14  2  0  0  0  0
 13 99  1  0  0  0  0
 14 15  1  0  0  0  0
 14100  1  0  0  0  0
 15101  1  0  0  0  0
 16 17  1  0  0  0  0
 16102  1  0  0  0  0
 17 18  2  0  0  0  0
 17 19  1  0  0  0  0
 19 20  1  0  0  0  0
 19 23  1  0  0  0  0
 19103  1  1  0  0  0
 20 21  1  0  0  0  0
 20104  1  0  0  0  0
 20105  1  0  0  0  0
 21 22  1  0  0  0  0
 21106  1  0  0  0  0
 21107  1  0  0  0  0
 22 23  1  0  0  0  0
 22108  1  0  0  0  0
 22109  1  0  0  0  0
 23 24  1  0  0  0  0
 24 25  2  0  0  0  0
 26 41  1  0  0  0  0
 26 27  1  0  0  0  0
 26 24  1  0  0  0  0
 26110  1  1  0  0  0
 27 28  1  0  0  0  0
 27111  1  0  0  0  0
 28 29  2  0  0  0  0
 28 30  1  0  0  0  0
 30 31  1  0  0  0  0
 30 39  2  0  0  0  0
 31 32  2  0  0  0  0
 31112  1  0  0  0  0
 32 33  1  0  0  0  0
 32 37  1  0  0  0  0
 33 34  2  0  0  0  0
 33113  1  0  0  0  0
 34 35  1  0  0  0  0
 34114  1  0  0  0  0
 35 36  2  0  0  0  0
 35115  1  0  0  0  0
 36 37  1  0  0  0  0
 36116  1  0  0  0  0
 37 38  2  0  0  0  0
 38 39  1  0  0  0  0
 39 40  1  0  0  0  0
 40117  1  0  0  0  0
 40118  1  0  0  0  0
 40119  1  0  0  0  0
 41 42  1  0  0  0  0
 41120  1  0  0  0  0
 41121  1  0  0  0  0
 42 43  1  0  0  0  0
 43 44  1  0  0  0  0
 44 45  1  0  0  0  0
 44122  1  0  0  0  0
 44123  1  0  0  0  0
 45 46  1  0  0  0  0
 45 71  1  0  0  0  0
 45124  1  1  0  0  0
 46 47  2  0  0  0  0
 46 48  1  0  0  0  0
 48 49  1  0  0  0  0
 48 52  1  0  0  0  0
 49 50  1  0  0  0  0
 49125  1  0  0  0  0
 49126  1  0  0  0  0
 50 51  1  0  0  0  0
 50127  1  0  0  0  0
 50128  1  0  0  0  0
 51 52  1  0  0  0  0
 51129  1  0  0  0  0
 51130  1  0  0  0  0
 52 53  1  0  0  0  0
 52131  1  1  0  0  0
 53 54  2  0  0  0  0
 53 55  1  0  0  0  0
 55132  1  0  0  0  0
 56 64  1  0  0  0  0
 56 57  1  0  0  0  0
 56 55  1  0  0  0  0
 56133  1  1  0  0  0
 57 58  2  0  0  0  0
 57 59  1  0  0  0  0
 59 60  1  0  0  0  0
 59134  1  0  0  0  0
 60 61  1  0  0  0  0
 60135  1  0  0  0  0
 60136  1  0  0  0  0
 61 62  1  0  0  0  0
 61137  1  0  0  0  0
 61138  1  0  0  0  0
 62 63  1  0  0  0  0
 62139  1  0  0  0  0
 62140  1  0  0  0  0
 63141  1  0  0  0  0
 63142  1  0  0  0  0
 64 65  1  0  0  0  0
 64143  1  0  0  0  0
 64144  1  0  0  0  0
 65 66  1  0  0  0  0
 65 70  2  0  0  0  0
 66 67  2  0  0  0  0
 66145  1  0  0  0  0
 67 68  1  0  0  0  0
 67146  1  0  0  0  0
 68 69  2  0  0  0  0
 68147  1  0  0  0  0
 69 70  1  0  0  0  0
 69148  1  0  0  0  0
 70149  1  0  0  0  0
 71 72  1  0  0  0  0
 71150  1  0  0  0  0
 72 73  2  0  0  0  0
 72 74  1  0  0  0  0
 74 75  1  0  0  0  0
 74 83  2  0  0  0  0
 75 76  2  0  0  0  0
 75151  1  0  0  0  0
 76 77  1  0  0  0  0
 76 81  1  0  0  0  0
 77 78  2  0  0  0  0
 77152  1  0  0  0  0
 78 79  1  0  0  0  0
 78153  1  0  0  0  0
 79 80  2  0  0  0  0
 79154  1  0  0  0  0
 80 81  1  0  0  0  0
 80155  1  0  0  0  0
 81 82  2  0  0  0  0
 82 83  1  0  0  0  0
 83 84  1  0  0  0  0
 84156  1  0  0  0  0
 84157  1  0  0  0  0
 84158  1  0  0  0  0
M  END
$$$$
Target_lig_1225
 OpenBabel04172516583D

152159  0  0  1  0  0  0  0  0999 V2000
    1.4894    5.2836    2.2110 N   0  0  0  0  0  0  0  0  0  0  0  0
    1.1611    3.8675    2.2555 C   0  0  0  0  0  0  0  0  0  0  0  0
    1.3361    3.1331    0.9227 C   0  0  0  0  0  0  0  0  0  0  0  0
    2.7695    3.0804    0.3808 C   0  0  0  0  0  0  0  0  0  0  0  0
    3.2648    4.3645   -0.0691 N   0  0  0  0  0  0  0  0  0  0  0  0
    4.2161    5.1391    0.5862 C   0  0  0  0  0  0  0  0  0  0  0  0
    4.8536    4.7211    1.5522 O   0  0  0  0  0  0  0  0  0  0  0  0
    4.5922    6.4528   -0.1868 C   0  0  2  0  0  0  0  0  0  0  0  0
    5.6068    7.3981    0.4659 C   0  0  0  0  0  0  0  0  0  0  0  0
    5.0915    8.3910    1.4751 C   0  0  0  0  0  0  0  0  0  0  0  0
    4.7660    7.9902    2.7742 C   0  0  0  0  0  0  0  0  0  0  0  0
    4.3316    8.9278    3.7140 C   0  0  0  0  0  0  0  0  0  0  0  0
    4.2258   10.2734    3.3673 C   0  0  0  0  0  0  0  0  0  0  0  0
    4.5535   10.6813    2.0786 C   0  0  0  0  0  0  0  0  0  0  0  0
    4.9817    9.7481    1.1359 C   0  0  0  0  0  0  0  0  0  0  0  0
    3.4742    7.1739   -0.8242 N   0  0  0  0  0  0  0  0  0  0  0  0
    3.0308    6.7580   -2.0407 C   0  0  0  0  0  0  0  0  0  0  0  0
    3.5006    5.7099   -2.5195 O   0  0  0  0  0  0  0  0  0  0  0  0
    1.7792    7.3890   -2.6836 C   0  0  2  0  0  0  0  0  0  0  0  0
    1.7530    6.7524   -4.0873 C   0  0  0  0  0  0  0  0  0  0  0  0
    0.8427    7.6239   -4.9014 C   0  0  0  0  0  0  0  0  0  0  0  0
    1.0637    9.0038   -4.3197 C   0  0  0  0  0  0  0  0  0  0  0  0
    1.5318    8.8183   -2.9536 N   0  0  0  0  0  0  0  0  0  0  0  0
    1.3331    9.7109   -1.9088 C   0  0  0  0  0  0  0  0  0  0  0  0
    1.9365    9.5267   -0.8445 O   0  0  0  0  0  0  0  0  0  0  0  0
    0.4004   10.9755   -2.1043 C   0  0  2  0  0  0  0  0  0  0  0  0
   -0.9858   10.5672   -2.5370 N   0  0  0  0  0  0  0  0  0  0  0  0
   -1.8196    9.8142   -1.7169 C   0  0  0  0  0  0  0  0  0  0  0  0
   -1.4462    9.3360   -0.6538 O   0  0  0  0  0  0  0  0  0  0  0  0
   -3.2188    9.4887   -2.1887 C   0  0  0  0  0  0  0  0  0  0  0  0
   -4.0579    8.7991   -1.3336 C   0  0  0  0  0  0  0  0  0  0  0  0
   -5.3096    8.3099   -1.6759 N   0  0  0  0  0  0  0  0  0  0  0  0
   -5.7710    8.5400   -2.9083 C   0  0  0  0  0  0  0  0  0  0  0  0
   -5.0198    9.2875   -3.8428 C   0  0  0  0  0  0  0  0  0  0  0  0
   -3.7433    9.7784   -3.4509 C   0  0  0  0  0  0  0  0  0  0  0  0
   -5.5463    9.4812   -5.1383 C   0  0  0  0  0  0  0  0  0  0  0  0
   -6.7644    8.9275   -5.5225 C   0  0  0  0  0  0  0  0  0  0  0  0
   -7.4974    8.1794   -4.6074 C   0  0  0  0  0  0  0  0  0  0  0  0
   -6.9997    8.0122   -3.3150 C   0  0  0  0  0  0  0  0  0  0  0  0
    1.0242   12.0189   -3.0696 C   0  0  0  0  0  0  0  0  0  0  0  0
   -0.0246   13.5133   -3.4176 S   0  0  0  0  0  0  0  0  0  0  0  0
    0.7996   15.0693   -2.3387 S   0  0  0  0  0  0  0  0  0  0  0  0
   -0.4664   15.5084   -1.0744 C   0  0  0  0  0  0  0  0  0  0  0  0
   -0.3098   15.0307    0.3988 C   0  0  1  0  0  0  0  0  0  0  0  0
   -0.9989   13.6657    0.6142 C   0  0  0  0  0  0  0  0  0  0  0  0
   -1.2845   12.9525   -0.3471 O   0  0  0  0  0  0  0  0  0  0  0  0
   -1.3352   13.2843    1.9235 N   0  0  0  0  0  0  0  0  0  0  0  0
   -1.7507   11.8946    2.1007 C   0  0  0  0  0  0  0  0  0  0  0  0
   -3.2265   11.9645    2.4404 C   0  0  0  0  0  0  0  0  0  0  0  0
   -3.3026   13.2120    3.3071 C   0  0  0  0  0  0  0  0  0  0  0  0
   -2.2062   14.1490    2.7476 C   0  0  1  0  0  0  0  0  0  0  0  0
   -1.5160   14.8854    3.9223 C   0  0  0  0  0  0  0  0  0  0  0  0
   -2.0915   15.8094    4.4966 O   0  0  0  0  0  0  0  0  0  0  0  0
   -0.3120   14.3752    4.3731 N   0  0  0  0  0  0  0  0  0  0  0  0
    0.2575   14.7733    5.6882 C   0  0  2  0  0  0  0  0  0  0  0  0
    1.6193   15.5413    5.6489 C   0  0  0  0  0  0  0  0  0  0  0  0
    2.4677   15.4419    6.5336 O   0  0  0  0  0  0  0  0  0  0  0  0
    1.8008   16.4856    4.6509 N   0  0  0  0  0  0  0  0  0  0  0  0
    3.0368   17.2741    4.6764 C   0  0  0  0  0  0  0  0  0  0  0  0
    3.5307   17.8784    3.3584 C   0  0  0  0  0  0  0  0  0  0  0  0
    2.5693   18.8496    2.7163 C   0  0  0  0  0  0  0  0  0  0  0  0
    3.0507   19.2204    1.3863 N   0  0  0  0  0  0  0  0  0  0  0  0
    0.3347   13.5624    6.6699 C   0  0  0  0  0  0  0  0  0  0  0  0
    0.7043   13.9741    8.0876 C   0  0  0  0  0  0  0  0  0  0  0  0
   -0.0548   14.9413    8.7627 C   0  0  0  0  0  0  0  0  0  0  0  0
    0.4217   15.5232    9.9384 C   0  0  0  0  0  0  0  0  0  0  0  0
    1.6433   15.1215   10.4736 C   0  0  0  0  0  0  0  0  0  0  0  0
    2.3807   14.1207    9.8450 C   0  0  0  0  0  0  0  0  0  0  0  0
    1.9095   13.5388    8.6649 C   0  0  0  0  0  0  0  0  0  0  0  0
    1.0384   15.1336    1.0144 N   0  0  0  0  0  0  0  0  0  0  0  0
    2.1009   14.2839    0.7018 C   0  0  0  0  0  0  0  0  0  0  0  0
    2.0029   13.3201   -0.0665 O   0  0  0  0  0  0  0  0  0  0  0  0
    3.4066   14.4799    1.3500 C   0  0  0  0  0  0  0  0  0  0  0  0
    3.4082   14.7286    2.6945 C   0  0  0  0  0  0  0  0  0  0  0  0
    4.4998   15.0619    3.4206 N   0  0  0  0  0  0  0  0  0  0  0  0
    5.6643   15.2185    2.7854 C   0  0  0  0  0  0  0  0  0  0  0  0
    5.8281   14.7657    1.4668 C   0  0  0  0  0  0  0  0  0  0  0  0
    4.6668   14.3503    0.7585 C   0  0  0  0  0  0  0  0  0  0  0  0
    7.1171   14.8301    0.9009 C   0  0  0  0  0  0  0  0  0  0  0  0
    8.1507   15.5154    1.5525 C   0  0  0  0  0  0  0  0  0  0  0  0
    7.9182   16.1244    2.7803 C   0  0  0  0  0  0  0  0  0  0  0  0
    6.6893   15.9265    3.4048 C   0  0  0  0  0  0  0  0  0  0  0  0
    1.5593    5.6609    3.1539 H   0  0  0  0  0  0  0  0  0  0  0  0
    0.7681    5.8145    1.7283 H   0  0  0  0  0  0  0  0  0  0  0  0
    0.1181    3.7684    2.5775 H   0  0  0  0  0  0  0  0  0  0  0  0
    1.7783    3.3789    3.0164 H   0  0  0  0  0  0  0  0  0  0  0  0
    0.6612    3.5544    0.1671 H   0  0  0  0  0  0  0  0  0  0  0  0
    1.0067    2.0961    1.0812 H   0  0  0  0  0  0  0  0  0  0  0  0
    2.7699    2.4322   -0.5060 H   0  0  0  0  0  0  0  0  0  0  0  0
    3.4515    2.6352    1.1109 H   0  0  0  0  0  0  0  0  0  0  0  0
    2.9912    4.6737   -0.9951 H   0  0  0  0  0  0  0  0  0  0  0  0
    5.1796    6.0274   -1.0153 H   0  0  0  0  0  0  0  0  0  0  0  0
    6.4354    6.8332    0.9094 H   0  0  0  0  0  0  0  0  0  0  0  0
    6.0622    7.9751   -0.3534 H   0  0  0  0  0  0  0  0  0  0  0  0
    4.8633    6.9463    3.0660 H   0  0  0  0  0  0  0  0  0  0  0  0
    4.0831    8.6059    4.7209 H   0  0  0  0  0  0  0  0  0  0  0  0
    3.8942   11.0044    4.0989 H   0  0  0  0  0  0  0  0  0  0  0  0
    4.4778   11.7265    1.8046 H   0  0  0  0  0  0  0  0  0  0  0  0
    5.2313   10.0918    0.1343 H   0  0  0  0  0  0  0  0  0  0  0  0
    3.0297    7.9735   -0.3602 H   0  0  0  0  0  0  0  0  0  0  0  0
    0.9191    7.0427   -2.0937 H   0  0  0  0  0  0  0  0  0  0  0  0
    1.4254    5.7076   -4.0561 H   0  0  0  0  0  0  0  0  0  0  0  0
    2.7550    6.7731   -4.5407 H   0  0  0  0  0  0  0  0  0  0  0  0
   -0.1943    7.3036   -4.7655 H   0  0  0  0  0  0  0  0  0  0  0  0
    1.0853    7.5801   -5.9669 H   0  0  0  0  0  0  0  0  0  0  0  0
    0.1402    9.5742   -4.3809 H   0  0  0  0  0  0  0  0  0  0  0  0
    1.8490    9.5405   -4.8620 H   0  0  0  0  0  0  0  0  0  0  0  0
    0.3252   11.4255   -1.1111 H   0  0  0  0  0  0  0  0  0  0  0  0
   -1.4447   11.2412   -3.1315 H   0  0  0  0  0  0  0  0  0  0  0  0
   -3.7613    8.5443   -0.3168 H   0  0  0  0  0  0  0  0  0  0  0  0
   -3.1639   10.3419   -4.1768 H   0  0  0  0  0  0  0  0  0  0  0  0
   -4.9743   10.0506   -5.8712 H   0  0  0  0  0  0  0  0  0  0  0  0
   -7.1444    9.0724   -6.5313 H   0  0  0  0  0  0  0  0  0  0  0  0
   -8.4442    7.7286   -4.8968 H   0  0  0  0  0  0  0  0  0  0  0  0
   -7.5807    7.4156   -2.6063 H   0  0  0  0  0  0  0  0  0  0  0  0
    1.1299   11.5770   -4.0650 H   0  0  0  0  0  0  0  0  0  0  0  0
    2.0400   12.3146   -2.7827 H   0  0  0  0  0  0  0  0  0  0  0  0
   -1.4561   15.2345   -1.4632 H   0  0  0  0  0  0  0  0  0  0  0  0
   -0.4744   16.6071   -1.0633 H   0  0  0  0  0  0  0  0  0  0  0  0
   -0.9180   15.7509    0.9767 H   0  0  0  0  0  0  0  0  0  0  0  0
   -1.1820   11.5033    2.9501 H   0  0  0  0  0  0  0  0  0  0  0  0
   -1.5542   11.2635    1.2317 H   0  0  0  0  0  0  0  0  0  0  0  0
   -3.5794   11.0667    2.9577 H   0  0  0  0  0  0  0  0  0  0  0  0
   -3.8308   12.0941    1.5341 H   0  0  0  0  0  0  0  0  0  0  0  0
   -3.1197   12.9501    4.3560 H   0  0  0  0  0  0  0  0  0  0  0  0
   -4.2996   13.6664    3.2580 H   0  0  0  0  0  0  0  0  0  0  0  0
   -2.6747   14.9047    2.1037 H   0  0  0  0  0  0  0  0  0  0  0  0
    0.0662   13.5658    3.8869 H   0  0  0  0  0  0  0  0  0  0  0  0
   -0.4420   15.4981    6.1192 H   0  0  0  0  0  0  0  0  0  0  0  0
    1.1515   16.4989    3.8778 H   0  0  0  0  0  0  0  0  0  0  0  0
    3.8366   16.6366    5.0748 H   0  0  0  0  0  0  0  0  0  0  0  0
    2.9061   18.0594    5.4249 H   0  0  0  0  0  0  0  0  0  0  0  0
    3.7488   17.1285    2.6036 H   0  0  0  0  0  0  0  0  0  0  0  0
    4.4939   18.3705    3.5553 H   0  0  0  0  0  0  0  0  0  0  0  0
    2.4695   19.7316    3.3519 H   0  0  0  0  0  0  0  0  0  0  0  0
    1.5889   18.3813    2.5970 H   0  0  0  0  0  0  0  0  0  0  0  0
    4.0643   19.1049    1.3170 H   0  0  0  0  0  0  0  0  0  0  0  0
    2.8797   20.2137    1.2325 H   0  0  0  0  0  0  0  0  0  0  0  0
    1.0633   12.8325    6.2901 H   0  0  0  0  0  0  0  0  0  0  0  0
   -0.6282   13.0359    6.7069 H   0  0  0  0  0  0  0  0  0  0  0  0
   -0.9864   15.3081    8.3393 H   0  0  0  0  0  0  0  0  0  0  0  0
   -0.1408   16.3234   10.4110 H   0  0  0  0  0  0  0  0  0  0  0  0
    2.0325   15.6060   11.3647 H   0  0  0  0  0  0  0  0  0  0  0  0
    3.3516   13.8336   10.2407 H   0  0  0  0  0  0  0  0  0  0  0  0
    2.5457   12.8232    8.1480 H   0  0  0  0  0  0  0  0  0  0  0  0
    1.2731   16.0247    1.4376 H   0  0  0  0  0  0  0  0  0  0  0  0
    2.4754   14.7477    3.2311 H   0  0  0  0  0  0  0  0  0  0  0  0
    4.7438   13.9866   -0.2624 H   0  0  0  0  0  0  0  0  0  0  0  0
    7.3088   14.3923   -0.0731 H   0  0  0  0  0  0  0  0  0  0  0  0
    9.1264   15.6092    1.0830 H   0  0  0  0  0  0  0  0  0  0  0  0
    8.6825   16.7382    3.2515 H   0  0  0  0  0  0  0  0  0  0  0  0
    6.5047   16.3960    4.3727 H   0  0  0  0  0  0  0  0  0  0  0  0
  1  2  1  0  0  0  0
  1 83  1  0  0  0  0
  1 84  1  0  0  0  0
  2  3  1  0  0  0  0
  2 85  1  0  0  0  0
  2 86  1  0  0  0  0
  3  4  1  0  0  0  0
  3 87  1  0  0  0  0
  3 88  1  0  0  0  0
  4  5  1  0  0  0  0
  4 89  1  0  0  0  0
  4 90  1  0  0  0  0
  5  6  1  0  0  0  0
  5 91  1  0  0  0  0
  6  7  2  0  0  0  0
  8 16  1  0  0  0  0
  8  9  1  0  0  0  0
  8  6  1  0  0  0  0
  8 92  1  6  0  0  0
  9 10  1  0  0  0  0
  9 93  1  0  0  0  0
  9 94  1  0  0  0  0
 10 11  1  0  0  0  0
 10 15  2  0  0  0  0
 11 12  2  0  0  0  0
 11 95  1  0  0  0  0
 12 13  1  0  0  0  0
 12 96  1  0  0  0  0
 13 14  2  0  0  0  0
 13 97  1  0  0  0  0
 14 15  1  0  0  0  0
 14 98  1  0  0  0  0
 15 99  1  0  0  0  0
 16 17  1  0  0  0  0
 16100  1  0  0  0  0
 17 18  2  0  0  0  0
 17 19  1  0  0  0  0
 19 20  1  0  0  0  0
 19 23  1  0  0  0  0
 19101  1  1  0  0  0
 20 21  1  0  0  0  0
 20102  1  0  0  0  0
 20103  1  0  0  0  0
 21 22  1  0  0  0  0
 21104  1  0  0  0  0
 21105  1  0  0  0  0
 22 23  1  0  0  0  0
 22106  1  0  0  0  0
 22107  1  0  0  0  0
 23 24  1  0  0  0  0
 24 25  2  0  0  0  0
 26 40  1  0  0  0  0
 26 27  1  0  0  0  0
 26 24  1  0  0  0  0
 26108  1  1  0  0  0
 27 28  1  0  0  0  0
 27109  1  0  0  0  0
 28 29  2  0  0  0  0
 28 30  1  0  0  0  0
 30 31  1  0  0  0  0
 30 35  2  0  0  0  0
 31 32  2  0  0  0  0
 31110  1  0  0  0  0
 32 33  1  0  0  0  0
 33 34  1  0  0  0  0
 33 39  2  0  0  0  0
 34 35  1  0  0  0  0
 34 36  2  0  0  0  0
 35111  1  0  0  0  0
 36 37  1  0  0  0  0
 36112  1  0  0  0  0
 37 38  2  0  0  0  0
 37113  1  0  0  0  0
 38 39  1  0  0  0  0
 38114  1  0  0  0  0
 39115  1  0  0  0  0
 40 41  1  0  0  0  0
 40116  1  0  0  0  0
 40117  1  0  0  0  0
 41 42  1  0  0  0  0
 42 43  1  0  0  0  0
 43 44  1  0  0  0  0
 43118  1  0  0  0  0
 43119  1  0  0  0  0
 44 45  1  0  0  0  0
 44 70  1  0  0  0  0
 44120  1  1  0  0  0
 45 46  2  0  0  0  0
 45 47  1  0  0  0  0
 47 48  1  0  0  0  0
 47 51  1  0  0  0  0
 48 49  1  0  0  0  0
 48121  1  0  0  0  0
 48122  1  0  0  0  0
 49 50  1  0  0  0  0
 49123  1  0  0  0  0
 49124  1  0  0  0  0
 50 51  1  0  0  0  0
 50125  1  0  0  0  0
 50126  1  0  0  0  0
 51 52  1  0  0  0  0
 51127  1  6  0  0  0
 52 53  2  0  0  0  0
 52 54  1  0  0  0  0
 54128  1  0  0  0  0
 55 63  1  0  0  0  0
 55 56  1  0  0  0  0
 55 54  1  0  0  0  0
 55129  1  1  0  0  0
 56 57  2  0  0  0  0
 56 58  1  0  0  0  0
 58 59  1  0  0  0  0
 58130  1  0  0  0  0
 59 60  1  0  0  0  0
 59131  1  0  0  0  0
 59132  1  0  0  0  0
 60 61  1  0  0  0  0
 60133  1  0  0  0  0
 60134  1  0  0  0  0
 61 62  1  0  0  0  0
 61135  1  0  0  0  0
 61136  1  0  0  0  0
 62137  1  0  0  0  0
 62138  1  0  0  0  0
 63 64  1  0  0  0  0
 63139  1  0  0  0  0
 63140  1  0  0  0  0
 64 65  1  0  0  0  0
 64 69  2  0  0  0  0
 65 66  2  0  0  0  0
 65141  1  0  0  0  0
 66 67  1  0  0  0  0
 66142  1  0  0  0  0
 67 68  2  0  0  0  0
 67143  1  0  0  0  0
 68 69  1  0  0  0  0
 68144  1  0  0  0  0
 69145  1  0  0  0  0
 70 71  1  0  0  0  0
 70146  1  0  0  0  0
 71 72  2  0  0  0  0
 71 73  1  0  0  0  0
 73 74  1  0  0  0  0
 73 78  2  0  0  0  0
 74 75  2  0  0  0  0
 74147  1  0  0  0  0
 75 76  1  0  0  0  0
 76 77  1  0  0  0  0
 76 82  2  0  0  0  0
 77 78  1  0  0  0  0
 77 79  2  0  0  0  0
 78148  1  0  0  0  0
 79 80  1  0  0  0  0
 79149  1  0  0  0  0
 80 81  2  0  0  0  0
 80150  1  0  0  0  0
 81 82  1  0  0  0  0
 81151  1  0  0  0  0
 82152  1  0  0  0  0
M  END
$$$$
Target_lig_1226
 OpenBabel04172516583D

170179  0  0  1  0  0  0  0  0999 V2000
    8.2286   15.4118   15.8306 N   0  0  0  0  0  0  0  0  0  0  0  0
    8.0235   14.3746   14.8197 C   0  0  0  0  0  0  0  0  0  0  0  0
    7.1372   14.9334   13.6991 C   0  0  0  0  0  0  0  0  0  0  0  0
    6.8667   13.9507   12.5552 C   0  0  0  0  0  0  0  0  0  0  0  0
    6.0221   14.5485   11.5029 N   0  0  0  0  0  0  0  0  0  0  0  0
    5.4971   13.7486   10.5064 C   0  0  0  0  0  0  0  0  0  0  0  0
    5.7203   12.5276   10.5223 O   0  0  0  0  0  0  0  0  0  0  0  0
    4.6944   14.3716    9.3001 C   0  0  2  0  0  0  0  0  0  0  0  0
    3.4032   15.1852    9.5279 C   0  0  0  0  0  0  0  0  0  0  0  0
    2.2331   14.4592   10.0898 C   0  0  0  0  0  0  0  0  0  0  0  0
    2.3525   13.9243   11.4077 C   0  0  0  0  0  0  0  0  0  0  0  0
    1.2662   13.3467   12.0523 C   0  0  0  0  0  0  0  0  0  0  0  0
    0.0288   13.2707   11.4220 C   0  0  0  0  0  0  0  0  0  0  0  0
   -0.1167   13.7662   10.1229 C   0  0  0  0  0  0  0  0  0  0  0  0
    0.9745   14.3396    9.4700 C   0  0  0  0  0  0  0  0  0  0  0  0
    4.3747   13.1868    8.5294 N   0  0  0  0  0  0  0  0  0  0  0  0
    3.6810   13.1124    7.3442 C   0  0  0  0  0  0  0  0  0  0  0  0
    3.1498   14.0249    6.7621 O   0  0  0  0  0  0  0  0  0  0  0  0
    3.7041   11.6858    6.8230 C   0  0  2  0  0  0  0  0  0  0  0  0
    5.2454   11.4976    6.5701 C   0  0  0  0  0  0  0  0  0  0  0  0
    5.3310   10.4352    5.5211 C   0  0  0  0  0  0  0  0  0  0  0  0
    4.0433   10.6374    4.7083 C   0  0  0  0  0  0  0  0  0  0  0  0
    3.0745   11.4146    5.5310 N   0  0  0  0  0  0  0  0  0  0  0  0
    1.6971   11.4649    5.1709 C   0  0  0  0  0  0  0  0  0  0  0  0
    1.3601   10.8204    4.1614 O   0  0  0  0  0  0  0  0  0  0  0  0
    0.5019   12.4215    5.8833 C   0  0  2  0  0  0  0  0  0  0  0  0
   -0.9248   11.6246    6.1796 N   0  0  0  0  0  0  0  0  0  0  0  0
   -2.1933   12.1830    6.5512 C   0  0  0  0  0  0  0  0  0  0  0  0
   -2.2921   13.4096    6.6379 O   0  0  0  0  0  0  0  0  0  0  0  0
   -3.5991   11.4232    6.8999 C   0  0  0  0  0  0  0  0  0  0  0  0
   -4.6269   12.0894    6.1270 C   0  0  0  0  0  0  0  0  0  0  0  0
   -4.8893   11.5622    4.8411 C   0  0  0  0  0  0  0  0  0  0  0  0
   -4.9447   12.3174    3.6451 C   0  0  0  0  0  0  0  0  0  0  0  0
   -4.1175   11.8537    2.6265 C   0  0  0  0  0  0  0  0  0  0  0  0
   -3.4189   12.7073    1.7923 O   0  0  0  0  0  0  0  0  0  0  0  0
   -2.1043   12.1405    2.0179 C   0  0  0  0  0  0  0  0  0  0  0  0
   -2.1889   10.7227    2.1194 O   0  0  0  0  0  0  0  0  0  0  0  0
   -3.3949   10.6875    2.7584 C   0  0  0  0  0  0  0  0  0  0  0  0
   -3.5293    9.9230    3.8778 C   0  0  0  0  0  0  0  0  0  0  0  0
   -4.4774   10.2425    4.7684 C   0  0  0  0  0  0  0  0  0  0  0  0
   -4.3463    9.4726    5.8092 N   0  0  0  0  0  0  0  0  0  0  0  0
   -3.8145   10.0342    6.9011 C   0  0  0  0  0  0  0  0  0  0  0  0
   -4.2961    9.1166    8.0048 C   0  0  0  0  0  0  0  0  0  0  0  0
   -3.6274    9.0685    9.3456 C   0  0  0  0  0  0  0  0  0  0  0  0
    0.3947   13.6778    4.8930 C   0  0  0  0  0  0  0  0  0  0  0  0
   -0.4915   15.3196    5.3449 S   0  0  0  0  0  0  0  0  0  0  0  0
    0.8954   16.7068    6.0825 S   0  0  0  0  0  0  0  0  0  0  0  0
   -0.0213   18.0048    7.1498 C   0  0  0  0  0  0  0  0  0  0  0  0
    0.3541   18.2220    8.7342 C   0  0  1  0  0  0  0  0  0  0  0  0
    1.9684   18.7346    8.9068 C   0  0  0  0  0  0  0  0  0  0  0  0
    2.6175   18.6894    7.8374 O   0  0  0  0  0  0  0  0  0  0  0  0
    2.7846   18.9619   10.0576 N   0  0  0  0  0  0  0  0  0  0  0  0
    4.2421   18.7603    9.8720 C   0  0  0  0  0  0  0  0  0  0  0  0
    4.7519   18.1080   11.1504 C   0  0  0  0  0  0  0  0  0  0  0  0
    3.9134   18.7503   12.2252 C   0  0  0  0  0  0  0  0  0  0  0  0
    2.5952   19.2917   11.5299 C   0  0  1  0  0  0  0  0  0  0  0  0
    2.5537   20.7718   12.1456 C   0  0  0  0  0  0  0  0  0  0  0  0
    2.5468   20.9384   13.3735 O   0  0  0  0  0  0  0  0  0  0  0  0
    2.6832   21.8618   11.3184 N   0  0  0  0  0  0  0  0  0  0  0  0
    2.9061   23.2577   11.8167 C   0  0  2  0  0  0  0  0  0  0  0  0
    1.6209   24.1366   12.0005 C   0  0  0  0  0  0  0  0  0  0  0  0
    1.1638   24.8163   11.0819 O   0  0  0  0  0  0  0  0  0  0  0  0
    1.0239   24.1184   13.2496 N   0  0  0  0  0  0  0  0  0  0  0  0
    0.0924   25.1636   13.7132 C   0  0  0  0  0  0  0  0  0  0  0  0
   -1.2198   25.3327   12.9260 C   0  0  0  0  0  0  0  0  0  0  0  0
   -2.0741   24.0954   13.0030 C   0  0  0  0  0  0  0  0  0  0  0  0
   -2.7466   23.9068   14.2890 N   0  0  0  0  0  0  0  0  0  0  0  0
    3.8395   24.0074   10.8223 C   0  0  0  0  0  0  0  0  0  0  0  0
    4.3371   25.3697   11.2779 C   0  0  0  0  0  0  0  0  0  0  0  0
    5.2060   25.5012   12.3699 C   0  0  0  0  0  0  0  0  0  0  0  0
    5.6451   26.7649   12.7818 C   0  0  0  0  0  0  0  0  0  0  0  0
    5.2322   27.9098   12.1026 C   0  0  0  0  0  0  0  0  0  0  0  0
    4.3844   27.7934   11.0049 C   0  0  0  0  0  0  0  0  0  0  0  0
    3.9410   26.5321   10.5948 C   0  0  0  0  0  0  0  0  0  0  0  0
   -0.9356   18.8049    9.3188 N   0  0  0  0  0  0  0  0  0  0  0  0
   -1.0393   19.6426   10.3945 C   0  0  0  0  0  0  0  0  0  0  0  0
   -0.0211   20.1891   10.7913 O   0  0  0  0  0  0  0  0  0  0  0  0
   -2.3528   19.7248   11.1738 C   0  0  0  0  0  0  0  0  0  0  0  0
   -3.6922   19.5912   10.7723 C   0  0  0  0  0  0  0  0  0  0  0  0
   -4.6165   18.9526   11.6360 C   0  0  0  0  0  0  0  0  0  0  0  0
   -5.6328   18.1293   11.1285 C   0  0  0  0  0  0  0  0  0  0  0  0
   -5.4219   16.7908   11.3673 C   0  0  0  0  0  0  0  0  0  0  0  0
   -5.9375   15.7359   10.6889 O   0  0  0  0  0  0  0  0  0  0  0  0
   -5.0336   14.6938   11.1377 C   0  0  0  0  0  0  0  0  0  0  0  0
   -4.2961   15.0595   12.3178 O   0  0  0  0  0  0  0  0  0  0  0  0
   -4.5537   16.3900   12.3498 C   0  0  0  0  0  0  0  0  0  0  0  0
   -3.9929   17.2848   13.2201 C   0  0  0  0  0  0  0  0  0  0  0  0
   -4.0449   18.6045   12.8635 C   0  0  0  0  0  0  0  0  0  0  0  0
   -3.1240   19.3540   13.4224 N   0  0  0  0  0  0  0  0  0  0  0  0
   -2.2209   19.8471   12.5495 C   0  0  0  0  0  0  0  0  0  0  0  0
   -1.5449   21.0765   13.0250 C   0  0  0  0  0  0  0  0  0  0  0  0
   -0.8600   21.0702   14.3655 C   0  0  0  0  0  0  0  0  0  0  0  0
    8.8180   15.0583   16.5848 H   0  0  0  0  0  0  0  0  0  0  0  0
    7.3386   15.6599   16.2638 H   0  0  0  0  0  0  0  0  0  0  0  0
    7.5648   13.4979   15.2906 H   0  0  0  0  0  0  0  0  0  0  0  0
    9.0004   14.0706   14.4280 H   0  0  0  0  0  0  0  0  0  0  0  0
    7.6126   15.8300   13.2830 H   0  0  0  0  0  0  0  0  0  0  0  0
    6.1762   15.2488   14.1227 H   0  0  0  0  0  0  0  0  0  0  0  0
    6.3666   13.0520   12.9395 H   0  0  0  0  0  0  0  0  0  0  0  0
    7.8089   13.6242   12.0964 H   0  0  0  0  0  0  0  0  0  0  0  0
    6.2043   15.5154   11.2707 H   0  0  0  0  0  0  0  0  0  0  0  0
    5.3905   14.9800    8.7202 H   0  0  0  0  0  0  0  0  0  0  0  0
    3.5395   16.0335   10.1196 H   0  0  0  0  0  0  0  0  0  0  0  0
    3.0718   15.5821    8.5430 H   0  0  0  0  0  0  0  0  0  0  0  0
    3.2984   13.9916   11.9380 H   0  0  0  0  0  0  0  0  0  0  0  0
    1.3797   12.9751   13.0642 H   0  0  0  0  0  0  0  0  0  0  0  0
   -0.8179   12.8480   11.9414 H   0  0  0  0  0  0  0  0  0  0  0  0
   -1.0815   13.7193    9.6246 H   0  0  0  0  0  0  0  0  0  0  0  0
    0.8408   14.7297    8.4635 H   0  0  0  0  0  0  0  0  0  0  0  0
    4.7649   12.3480    8.9408 H   0  0  0  0  0  0  0  0  0  0  0  0
    3.3468   10.9675    7.5503 H   0  0  0  0  0  0  0  0  0  0  0  0
    5.8077   11.2248    7.4735 H   0  0  0  0  0  0  0  0  0  0  0  0
    5.7103   12.4211    6.1894 H   0  0  0  0  0  0  0  0  0  0  0  0
    5.3722    9.4506    6.0006 H   0  0  0  0  0  0  0  0  0  0  0  0
    6.2507   10.5382    4.9272 H   0  0  0  0  0  0  0  0  0  0  0  0
    3.6389    9.6595    4.4333 H   0  0  0  0  0  0  0  0  0  0  0  0
    4.2686   11.2032    3.7987 H   0  0  0  0  0  0  0  0  0  0  0  0
    0.8581   12.7615    6.8532 H   0  0  0  0  0  0  0  0  0  0  0  0
   -0.7954   10.6444    6.3893 H   0  0  0  0  0  0  0  0  0  0  0  0
   -5.5538   12.2833    6.6903 H   0  0  0  0  0  0  0  0  0  0  0  0
   -5.2754   13.3512    3.6187 H   0  0  0  0  0  0  0  0  0  0  0  0
   -1.3900   12.4066    1.2431 H   0  0  0  0  0  0  0  0  0  0  0  0
   -1.7348   12.5329    2.9824 H   0  0  0  0  0  0  0  0  0  0  0  0
   -2.5902    9.5745    4.3228 H   0  0  0  0  0  0  0  0  0  0  0  0
   -4.1980    8.0901    7.6029 H   0  0  0  0  0  0  0  0  0  0  0  0
   -5.3825    9.2409    8.1375 H   0  0  0  0  0  0  0  0  0  0  0  0
   -2.5454    8.9815    9.2410 H   0  0  0  0  0  0  0  0  0  0  0  0
   -3.9889    8.1768    9.8781 H   0  0  0  0  0  0  0  0  0  0  0  0
   -3.8882    9.9431    9.9409 H   0  0  0  0  0  0  0  0  0  0  0  0
   -0.1077   13.3258    3.9814 H   0  0  0  0  0  0  0  0  0  0  0  0
    1.3897   13.9716    4.5305 H   0  0  0  0  0  0  0  0  0  0  0  0
   -1.0887   17.7509    7.0619 H   0  0  0  0  0  0  0  0  0  0  0  0
    0.0674   18.9788    6.6394 H   0  0  0  0  0  0  0  0  0  0  0  0
    0.3728   17.2054    9.1403 H   0  0  0  0  0  0  0  0  0  0  0  0
    4.7124   19.7429    9.7590 H   0  0  0  0  0  0  0  0  0  0  0  0
    4.5072   18.1427    9.0070 H   0  0  0  0  0  0  0  0  0  0  0  0
    5.8333   18.2328   11.2973 H   0  0  0  0  0  0  0  0  0  0  0  0
    4.5885   17.0364   11.2017 H   0  0  0  0  0  0  0  0  0  0  0  0
    4.5311   19.5402   12.6771 H   0  0  0  0  0  0  0  0  0  0  0  0
    3.6906   18.0427   13.0337 H   0  0  0  0  0  0  0  0  0  0  0  0
    1.7264   18.7422   11.8968 H   0  0  0  0  0  0  0  0  0  0  0  0
    2.4441   21.7176   10.3415 H   0  0  0  0  0  0  0  0  0  0  0  0
    3.4104   23.1949   12.7925 H   0  0  0  0  0  0  0  0  0  0  0  0
    1.3795   23.4529   13.9298 H   0  0  0  0  0  0  0  0  0  0  0  0
    0.6303   26.1161   13.6911 H   0  0  0  0  0  0  0  0  0  0  0  0
   -0.1314   24.9366   14.7626 H   0  0  0  0  0  0  0  0  0  0  0  0
   -1.0078   25.5258   11.8703 H   0  0  0  0  0  0  0  0  0  0  0  0
   -1.7956   26.1864   13.2964 H   0  0  0  0  0  0  0  0  0  0  0  0
   -1.3572   23.3124   12.8187 H   0  0  0  0  0  0  0  0  0  0  0  0
   -2.8070   24.0377   12.1920 H   0  0  0  0  0  0  0  0  0  0  0  0
   -2.0602   23.7837   15.0317 H   0  0  0  0  0  0  0  0  0  0  0  0
   -3.2708   23.0276   14.2807 H   0  0  0  0  0  0  0  0  0  0  0  0
    3.3156   24.1190    9.8627 H   0  0  0  0  0  0  0  0  0  0  0  0
    4.7184   23.3899   10.5973 H   0  0  0  0  0  0  0  0  0  0  0  0
    5.5497   24.6236   12.9104 H   0  0  0  0  0  0  0  0  0  0  0  0
    6.3119   26.8571   13.6361 H   0  0  0  0  0  0  0  0  0  0  0  0
    5.5674   28.8914   12.4297 H   0  0  0  0  0  0  0  0  0  0  0  0
    4.0590   28.6829   10.4713 H   0  0  0  0  0  0  0  0  0  0  0  0
    3.2663   26.4668    9.7430 H   0  0  0  0  0  0  0  0  0  0  0  0
   -1.7768   18.2666    9.1133 H   0  0  0  0  0  0  0  0  0  0  0  0
   -4.0451   20.1006    9.8782 H   0  0  0  0  0  0  0  0  0  0  0  0
   -6.6770   18.4518   11.1278 H   0  0  0  0  0  0  0  0  0  0  0  0
   -5.6091   13.7971   11.3749 H   0  0  0  0  0  0  0  0  0  0  0  0
   -4.3254   14.4660   10.3275 H   0  0  0  0  0  0  0  0  0  0  0  0
   -3.3008   16.9780   13.9904 H   0  0  0  0  0  0  0  0  0  0  0  0
   -2.4117   21.7371   13.0614 H   0  0  0  0  0  0  0  0  0  0  0  0
   -0.8680   21.4916   12.2795 H   0  0  0  0  0  0  0  0  0  0  0  0
   -1.5543   20.8226   15.1710 H   0  0  0  0  0  0  0  0  0  0  0  0
   -0.4660   22.0711   14.5720 H   0  0  0  0  0  0  0  0  0  0  0  0
   -0.0223   20.3734   14.3703 H   0  0  0  0  0  0  0  0  0  0  0  0
  1  2  1  0  0  0  0
  1 93  1  0  0  0  0
  1 94  1  0  0  0  0
  2  3  1  0  0  0  0
  2 95  1  0  0  0  0
  2 96  1  0  0  0  0
  3  4  1  0  0  0  0
  3 97  1  0  0  0  0
  3 98  1  0  0  0  0
  4  5  1  0  0  0  0
  4 99  1  0  0  0  0
  4100  1  0  0  0  0
  5  6  1  0  0  0  0
  5101  1  0  0  0  0
  6  7  2  0  0  0  0
  8 16  1  0  0  0  0
  8  9  1  0  0  0  0
  8  6  1  0  0  0  0
  8102  1  6  0  0  0
  9 10  1  0  0  0  0
  9103  1  0  0  0  0
  9104  1  0  0  0  0
 10 11  1  0  0  0  0
 10 15  2  0  0  0  0
 11 12  2  0  0  0  0
 11105  1  0  0  0  0
 12 13  1  0  0  0  0
 12106  1  0  0  0  0
 13 14  2  0  0  0  0
 13107  1  0  0  0  0
 14 15  1  0  0  0  0
 14108  1  0  0  0  0
 15109  1  0  0  0  0
 16 17  1  0  0  0  0
 16110  1  0  0  0  0
 17 18  2  0  0  0  0
 17 19  1  0  0  0  0
 19 20  1  0  0  0  0
 19 23  1  0  0  0  0
 19111  1  1  0  0  0
 20 21  1  0  0  0  0
 20112  1  0  0  0  0
 20113  1  0  0  0  0
 21 22  1  0  0  0  0
 21114  1  0  0  0  0
 21115  1  0  0  0  0
 22 23  1  0  0  0  0
 22116  1  0  0  0  0
 22117  1  0  0  0  0
 23 24  1  0  0  0  0
 24 25  2  0  0  0  0
 26 45  1  0  0  0  0
 26 27  1  0  0  0  0
 26 24  1  0  0  0  0
 26118  1  1  0  0  0
 27 28  1  0  0  0  0
 27119  1  0  0  0  0
 28 29  2  0  0  0  0
 28 30  1  0  0  0  0
 30 31  1  0  0  0  0
 30 42  2  0  0  0  0
 31 32  2  0  0  0  0
 31120  1  0  0  0  0
 32 33  1  0  0  0  0
 32 40  1  0  0  0  0
 33 34  2  0  0  0  0
 33121  1  0  0  0  0
 34 35  1  0  0  0  0
 34 38  1  0  0  0  0
 35 36  1  0  0  0  0
 36 37  1  0  0  0  0
 36122  1  0  0  0  0
 36123  1  0  0  0  0
 37 38  1  0  0  0  0
 38 39  2  0  0  0  0
 39 40  1  0  0  0  0
 39124  1  0  0  0  0
 40 41  2  0  0  0  0
 41 42  1  0  0  0  0
 42 43  1  0  0  0  0
 43 44  1  0  0  0  0
 43125  1  0  0  0  0
 43126  1  0  0  0  0
 44127  1  0  0  0  0
 44128  1  0  0  0  0
 44129  1  0  0  0  0
 45 46  1  0  0  0  0
 45130  1  0  0  0  0
 45131  1  0  0  0  0
 46 47  1  0  0  0  0
 47 48  1  0  0  0  0
 48 49  1  0  0  0  0
 48132  1  0  0  0  0
 48133  1  0  0  0  0
 49 50  1  0  0  0  0
 49 75  1  0  0  0  0
 49134  1  1  0  0  0
 50 51  2  0  0  0  0
 50 52  1  0  0  0  0
 52 53  1  0  0  0  0
 52 56  1  0  0  0  0
 53 54  1  0  0  0  0
 53135  1  0  0  0  0
 53136  1  0  0  0  0
 54 55  1  0  0  0  0
 54137  1  0  0  0  0
 54138  1  0  0  0  0
 55 56  1  0  0  0  0
 55139  1  0  0  0  0
 55140  1  0  0  0  0
 56 57  1  0  0  0  0
 56141  1  1  0  0  0
 57 58  2  0  0  0  0
 57 59  1  0  0  0  0
 59142  1  0  0  0  0
 60 68  1  0  0  0  0
 60 61  1  0  0  0  0
 60 59  1  0  0  0  0
 60143  1  1  0  0  0
 61 62  2  0  0  0  0
 61 63  1  0  0  0  0
 63 64  1  0  0  0  0
 63144  1  0  0  0  0
 64 65  1  0  0  0  0
 64145  1  0  0  0  0
 64146  1  0  0  0  0
 65 66  1  0  0  0  0
 65147  1  0  0  0  0
 65148  1  0  0  0  0
 66 67  1  0  0  0  0
 66149  1  0  0  0  0
 66150  1  0  0  0  0
 67151  1  0  0  0  0
 67152  1  0  0  0  0
 68 69  1  0  0  0  0
 68153  1  0  0  0  0
 68154  1  0  0  0  0
 69 70  1  0  0  0  0
 69 74  2  0  0  0  0
 70 71  2  0  0  0  0
 70155  1  0  0  0  0
 71 72  1  0  0  0  0
 71156  1  0  0  0  0
 72 73  2  0  0  0  0
 72157  1  0  0  0  0
 73 74  1  0  0  0  0
 73158  1  0  0  0  0
 74159  1  0  0  0  0
 75 76  1  0  0  0  0
 75160  1  0  0  0  0
 76 77  2  0  0  0  0
 76 78  1  0  0  0  0
 78 79  1  0  0  0  0
 78 90  2  0  0  0  0
 79 80  2  0  0  0  0
 79161  1  0  0  0  0
 80 81  1  0  0  0  0
 80 88  1  0  0  0  0
 81 82  2  0  0  0  0
 81162  1  0  0  0  0
 82 83  1  0  0  0  0
 82 86  1  0  0  0  0
 83 84  1  0  0  0  0
 84 85  1  0  0  0  0
 84163  1  0  0  0  0
 84164  1  0  0  0  0
 85 86  1  0  0  0  0
 86 87  2  0  0  0  0
 87 88  1  0  0  0  0
 87165  1  0  0  0  0
 88 89  2  0  0  0  0
 89 90  1  0  0  0  0
 90 91  1  0  0  0  0
 91 92  1  0  0  0  0
 91166  1  0  0  0  0
 91167  1  0  0  0  0
 92168  1  0  0  0  0
 92169  1  0  0  0  0
 92170  1  0  0  0  0
M  END
$$$$
Target_lig_1227
 OpenBabel04172516583D

162171  0  0  1  0  0  0  0  0999 V2000
    6.6011    4.8853    8.4832 N   0  0  0  0  0  0  0  0  0  0  0  0
    5.4921    4.3625    7.6824 C   0  0  0  0  0  0  0  0  0  0  0  0
    5.4809    4.7765    6.1657 C   0  0  0  0  0  0  0  0  0  0  0  0
    5.6986    6.2949    5.8971 C   0  0  0  0  0  0  0  0  0  0  0  0
    5.2745    6.9486    4.5781 N   0  0  0  0  0  0  0  0  0  0  0  0
    6.0870    7.2576    3.4633 C   0  0  0  0  0  0  0  0  0  0  0  0
    7.0957    6.6148    3.1866 O   0  0  0  0  0  0  0  0  0  0  0  0
    5.6557    8.5047    2.5195 C   0  0  2  0  0  0  0  0  0  0  0  0
    6.6253    8.8771    1.2934 C   0  0  0  0  0  0  0  0  0  0  0  0
    6.5569   10.1922    0.4325 C   0  0  0  0  0  0  0  0  0  0  0  0
    7.7252   10.6211   -0.2487 C   0  0  0  0  0  0  0  0  0  0  0  0
    7.7688   11.7740   -1.0707 C   0  0  0  0  0  0  0  0  0  0  0  0
    6.6183   12.5436   -1.2563 C   0  0  0  0  0  0  0  0  0  0  0  0
    5.4544   12.1366   -0.6254 C   0  0  0  0  0  0  0  0  0  0  0  0
    5.4151   10.9745    0.1959 C   0  0  0  0  0  0  0  0  0  0  0  0
    5.6970    9.6313    3.4169 N   0  0  0  0  0  0  0  0  0  0  0  0
    4.6947   10.5624    3.4892 C   0  0  0  0  0  0  0  0  0  0  0  0
    3.5801   10.4293    2.9994 O   0  0  0  0  0  0  0  0  0  0  0  0
    5.1703   11.7738    4.2791 C   0  0  2  0  0  0  0  0  0  0  0  0
    5.4376   11.2627    5.7059 C   0  0  0  0  0  0  0  0  0  0  0  0
    5.1512   12.4516    6.5939 C   0  0  0  0  0  0  0  0  0  0  0  0
    4.0944   13.2244    5.8257 C   0  0  0  0  0  0  0  0  0  0  0  0
    4.1907   12.8531    4.4274 N   0  0  0  0  0  0  0  0  0  0  0  0
    3.5721   13.4856    3.3430 C   0  0  0  0  0  0  0  0  0  0  0  0
    3.8809   13.2183    2.1745 O   0  0  0  0  0  0  0  0  0  0  0  0
    2.5759   14.6734    3.6235 C   0  0  2  0  0  0  0  0  0  0  0  0
    1.7485   14.5667    4.8608 N   0  0  0  0  0  0  0  0  0  0  0  0
    0.9039   13.5352    5.2487 C   0  0  0  0  0  0  0  0  0  0  0  0
    0.2224   12.7063    4.3640 C   0  0  0  0  0  0  0  0  0  0  0  0
   -0.2708   11.4667    4.7752 C   0  0  0  0  0  0  0  0  0  0  0  0
   -0.0723   11.0456    6.0795 C   0  0  0  0  0  0  0  0  0  0  0  0
    0.3553   11.9525    7.0419 C   0  0  0  0  0  0  0  0  0  0  0  0
    0.8172   13.2196    6.6247 C   0  0  0  0  0  0  0  0  0  0  0  0
    0.4493   11.5372    8.4665 C   0  0  0  0  0  0  0  0  0  0  0  0
    0.7628   12.3384    9.3385 O   0  0  0  0  0  0  0  0  0  0  0  0
    0.2561   10.1037    8.7992 C   0  0  0  0  0  0  0  0  0  0  0  0
    0.1794    9.1692    7.7628 C   0  0  0  0  0  0  0  0  0  0  0  0
   -0.1147    9.6027    6.4078 C   0  0  0  0  0  0  0  0  0  0  0  0
   -0.3453    8.7630    5.5204 O   0  0  0  0  0  0  0  0  0  0  0  0
    0.3652    7.8062    8.0320 C   0  0  0  0  0  0  0  0  0  0  0  0
    0.4822    7.3727    9.3488 C   0  0  0  0  0  0  0  0  0  0  0  0
    0.3702    8.2890   10.3957 C   0  0  0  0  0  0  0  0  0  0  0  0
    0.2804    9.6586   10.1238 C   0  0  0  0  0  0  0  0  0  0  0  0
    1.7586   15.0807    2.3856 C   0  0  0  0  0  0  0  0  0  0  0  0
    0.9743   16.7546    2.5950 S   0  0  0  0  0  0  0  0  0  0  0  0
    2.4179   18.0133    1.8248 S   0  0  0  0  0  0  0  0  0  0  0  0
    2.5225   19.5509    2.8749 C   0  0  0  0  0  0  0  0  0  0  0  0
    3.9622   20.0737    3.3403 C   0  0  1  0  0  0  0  0  0  0  0  0
    5.1559   20.0298    2.2881 C   0  0  0  0  0  0  0  0  0  0  0  0
    4.9841   19.3556    1.2601 O   0  0  0  0  0  0  0  0  0  0  0  0
    6.4565   20.5114    2.4909 N   0  0  0  0  0  0  0  0  0  0  0  0
    7.5439   19.7493    1.8848 C   0  0  0  0  0  0  0  0  0  0  0  0
    8.5065   19.5325    3.0420 C   0  0  0  0  0  0  0  0  0  0  0  0
    8.3359   20.7681    3.9323 C   0  0  0  0  0  0  0  0  0  0  0  0
    7.1109   21.5416    3.3565 C   0  0  1  0  0  0  0  0  0  0  0  0
    7.7723   22.7908    2.5911 C   0  0  0  0  0  0  0  0  0  0  0  0
    8.6664   23.4774    3.0915 O   0  0  0  0  0  0  0  0  0  0  0  0
    7.3063   23.0747    1.3332 N   0  0  0  0  0  0  0  0  0  0  0  0
    8.0102   23.9441    0.3460 C   0  0  2  0  0  0  0  0  0  0  0  0
    7.8624   25.4721    0.5724 C   0  0  0  0  0  0  0  0  0  0  0  0
    6.8950   26.0890    0.1170 O   0  0  0  0  0  0  0  0  0  0  0  0
    8.8462   26.1104    1.3062 N   0  0  0  0  0  0  0  0  0  0  0  0
    8.8341   27.5581    1.4622 C   0  0  0  0  0  0  0  0  0  0  0  0
    8.0978   28.0466    2.7134 C   0  0  0  0  0  0  0  0  0  0  0  0
    6.7773   27.3643    3.0957 C   0  0  0  0  0  0  0  0  0  0  0  0
    5.6617   27.4840    2.1416 N   0  0  0  0  0  0  0  0  0  0  0  0
    7.3877   23.6472   -1.0405 C   0  0  0  0  0  0  0  0  0  0  0  0
    7.9679   24.3686   -2.2403 C   0  0  0  0  0  0  0  0  0  0  0  0
    9.2583   24.0921   -2.7078 C   0  0  0  0  0  0  0  0  0  0  0  0
    9.7461   24.7217   -3.8576 C   0  0  0  0  0  0  0  0  0  0  0  0
    8.9467   25.6295   -4.5507 C   0  0  0  0  0  0  0  0  0  0  0  0
    7.6648   25.9229   -4.0891 C   0  0  0  0  0  0  0  0  0  0  0  0
    7.1793   25.3014   -2.9370 C   0  0  0  0  0  0  0  0  0  0  0  0
    3.8814   21.3534    4.1040 N   0  0  0  0  0  0  0  0  0  0  0  0
    3.2360   22.5095    3.6470 C   0  0  0  0  0  0  0  0  0  0  0  0
    2.8351   22.7148    2.3228 C   0  0  0  0  0  0  0  0  0  0  0  0
    2.0404   23.8166    1.9659 C   0  0  0  0  0  0  0  0  0  0  0  0
    1.7834   24.8174    2.9003 C   0  0  0  0  0  0  0  0  0  0  0  0
    2.3967   24.7567    4.1426 C   0  0  0  0  0  0  0  0  0  0  0  0
    3.0637   23.5882    4.5409 C   0  0  0  0  0  0  0  0  0  0  0  0
    2.4502   25.9682    4.9823 C   0  0  0  0  0  0  0  0  0  0  0  0
    3.1289   25.9946    6.0010 O   0  0  0  0  0  0  0  0  0  0  0  0
    1.7207   27.1795    4.5447 C   0  0  0  0  0  0  0  0  0  0  0  0
    0.8300   27.1083    3.4756 C   0  0  0  0  0  0  0  0  0  0  0  0
    0.8495   25.9246    2.5905 C   0  0  0  0  0  0  0  0  0  0  0  0
    0.1096   25.8644    1.6117 O   0  0  0  0  0  0  0  0  0  0  0  0
    0.0034   28.2010    3.1739 C   0  0  0  0  0  0  0  0  0  0  0  0
    0.1765   29.4088    3.8528 C   0  0  0  0  0  0  0  0  0  0  0  0
    1.1721   29.5248    4.8239 C   0  0  0  0  0  0  0  0  0  0  0  0
    1.9207   28.4042    5.1961 C   0  0  0  0  0  0  0  0  0  0  0  0
    7.4721    4.5673    8.0517 H   0  0  0  0  0  0  0  0  0  0  0  0
    6.5878    4.4454    9.4089 H   0  0  0  0  0  0  0  0  0  0  0  0
    4.5584    4.6613    8.1684 H   0  0  0  0  0  0  0  0  0  0  0  0
    5.5292    3.2632    7.7458 H   0  0  0  0  0  0  0  0  0  0  0  0
    4.5172    4.4453    5.7610 H   0  0  0  0  0  0  0  0  0  0  0  0
    6.2531    4.1931    5.6469 H   0  0  0  0  0  0  0  0  0  0  0  0
    6.7584    6.5239    6.0498 H   0  0  0  0  0  0  0  0  0  0  0  0
    5.1232    6.8340    6.6580 H   0  0  0  0  0  0  0  0  0  0  0  0
    4.4362    7.5193    4.6136 H   0  0  0  0  0  0  0  0  0  0  0  0
    4.6432    8.3269    2.1473 H   0  0  0  0  0  0  0  0  0  0  0  0
    7.6420    8.8926    1.7173 H   0  0  0  0  0  0  0  0  0  0  0  0
    6.6069    8.0456    0.5793 H   0  0  0  0  0  0  0  0  0  0  0  0
    8.6455   10.0478   -0.1569 H   0  0  0  0  0  0  0  0  0  0  0  0
    8.6922   12.0627   -1.5688 H   0  0  0  0  0  0  0  0  0  0  0  0
    6.6424   13.4340   -1.8858 H   0  0  0  0  0  0  0  0  0  0  0  0
    4.5545   12.7339   -0.7620 H   0  0  0  0  0  0  0  0  0  0  0  0
    4.4616   10.7184    0.6456 H   0  0  0  0  0  0  0  0  0  0  0  0
    6.6060    9.8398    3.8140 H   0  0  0  0  0  0  0  0  0  0  0  0
    6.0791   12.1932    3.8254 H   0  0  0  0  0  0  0  0  0  0  0  0
    6.4524   10.8813    5.8457 H   0  0  0  0  0  0  0  0  0  0  0  0
    4.7513   10.4435    5.9631 H   0  0  0  0  0  0  0  0  0  0  0  0
    6.0566   13.0401    6.7563 H   0  0  0  0  0  0  0  0  0  0  0  0
    4.7731   12.1291    7.5717 H   0  0  0  0  0  0  0  0  0  0  0  0
    4.1586   14.3042    5.9757 H   0  0  0  0  0  0  0  0  0  0  0  0
    3.1456   12.8577    6.1809 H   0  0  0  0  0  0  0  0  0  0  0  0
    3.2733   15.5015    3.8082 H   0  0  0  0  0  0  0  0  0  0  0  0
    1.4847   15.4699    5.2403 H   0  0  0  0  0  0  0  0  0  0  0  0
    0.1020   12.9598    3.3192 H   0  0  0  0  0  0  0  0  0  0  0  0
   -0.7172   10.7975    4.0464 H   0  0  0  0  0  0  0  0  0  0  0  0
    1.2900   13.8766    7.3562 H   0  0  0  0  0  0  0  0  0  0  0  0
    0.4214    7.0925    7.2130 H   0  0  0  0  0  0  0  0  0  0  0  0
    0.6390    6.3161    9.5568 H   0  0  0  0  0  0  0  0  0  0  0  0
    0.3879    7.9359   11.4250 H   0  0  0  0  0  0  0  0  0  0  0  0
    0.2502   10.3696   10.9487 H   0  0  0  0  0  0  0  0  0  0  0  0
    0.9653   14.3583    2.1744 H   0  0  0  0  0  0  0  0  0  0  0  0
    2.3635   15.0938    1.4706 H   0  0  0  0  0  0  0  0  0  0  0  0
    1.8697   19.4267    3.7503 H   0  0  0  0  0  0  0  0  0  0  0  0
    2.0199   20.3026    2.2612 H   0  0  0  0  0  0  0  0  0  0  0  0
    4.2639   19.3223    4.0868 H   0  0  0  0  0  0  0  0  0  0  0  0
    8.0064   20.3710    1.1108 H   0  0  0  0  0  0  0  0  0  0  0  0
    7.2396   18.8005    1.4355 H   0  0  0  0  0  0  0  0  0  0  0  0
    9.5377   19.3915    2.7003 H   0  0  0  0  0  0  0  0  0  0  0  0
    8.2250   18.6388    3.6123 H   0  0  0  0  0  0  0  0  0  0  0  0
    9.2721   21.3403    3.9258 H   0  0  0  0  0  0  0  0  0  0  0  0
    8.1690   20.4657    4.9714 H   0  0  0  0  0  0  0  0  0  0  0  0
    6.4453   21.9172    4.1344 H   0  0  0  0  0  0  0  0  0  0  0  0
    6.5444   22.5026    0.9914 H   0  0  0  0  0  0  0  0  0  0  0  0
    9.0781   23.6884    0.3537 H   0  0  0  0  0  0  0  0  0  0  0  0
    9.5172   25.5472    1.8203 H   0  0  0  0  0  0  0  0  0  0  0  0
    8.3850   28.0075    0.5677 H   0  0  0  0  0  0  0  0  0  0  0  0
    9.8764   27.8931    1.4991 H   0  0  0  0  0  0  0  0  0  0  0  0
    7.9519   29.1328    2.6263 H   0  0  0  0  0  0  0  0  0  0  0  0
    8.7715   27.9056    3.5673 H   0  0  0  0  0  0  0  0  0  0  0  0
    6.4373   27.8159    4.0373 H   0  0  0  0  0  0  0  0  0  0  0  0
    6.9244   26.3022    3.2901 H   0  0  0  0  0  0  0  0  0  0  0  0
    5.4778   28.4983    2.1174 H   0  0  0  0  0  0  0  0  0  0  0  0
    5.9624   27.1847    1.2136 H   0  0  0  0  0  0  0  0  0  0  0  0
    6.3103   23.8643   -0.9917 H   0  0  0  0  0  0  0  0  0  0  0  0
    7.4449   22.5707   -1.2465 H   0  0  0  0  0  0  0  0  0  0  0  0
    9.8906   23.3698   -2.1969 H   0  0  0  0  0  0  0  0  0  0  0  0
   10.7446   24.4940   -4.2241 H   0  0  0  0  0  0  0  0  0  0  0  0
    9.3204   26.1025   -5.4570 H   0  0  0  0  0  0  0  0  0  0  0  0
    7.0369   26.6211   -4.6385 H   0  0  0  0  0  0  0  0  0  0  0  0
    6.1710   25.5389   -2.5994 H   0  0  0  0  0  0  0  0  0  0  0  0
    3.5632   21.1705    5.0612 H   0  0  0  0  0  0  0  0  0  0  0  0
    3.0806   22.0035    1.5407 H   0  0  0  0  0  0  0  0  0  0  0  0
    1.6586   23.9111    0.9498 H   0  0  0  0  0  0  0  0  0  0  0  0
    3.4563   23.5492    5.5597 H   0  0  0  0  0  0  0  0  0  0  0  0
   -0.7464   28.1264    2.3886 H   0  0  0  0  0  0  0  0  0  0  0  0
   -0.4368   30.2704    3.5961 H   0  0  0  0  0  0  0  0  0  0  0  0
    1.3623   30.4879    5.2946 H   0  0  0  0  0  0  0  0  0  0  0  0
    2.6753   28.5002    5.9751 H   0  0  0  0  0  0  0  0  0  0  0  0
  1  2  1  0  0  0  0
  1 91  1  0  0  0  0
  1 92  1  0  0  0  0
  2  3  1  0  0  0  0
  2 93  1  0  0  0  0
  2 94  1  0  0  0  0
  3  4  1  0  0  0  0
  3 95  1  0  0  0  0
  3 96  1  0  0  0  0
  4  5  1  0  0  0  0
  4 97  1  0  0  0  0
  4 98  1  0  0  0  0
  5  6  1  0  0  0  0
  5 99  1  0  0  0  0
  6  7  2  0  0  0  0
  8 16  1  0  0  0  0
  8  9  1  0  0  0  0
  8  6  1  0  0  0  0
  8100  1  6  0  0  0
  9 10  1  0  0  0  0
  9101  1  0  0  0  0
  9102  1  0  0  0  0
 10 11  1  0  0  0  0
 10 15  2  0  0  0  0
 11 12  2  0  0  0  0
 11103  1  0  0  0  0
 12 13  1  0  0  0  0
 12104  1  0  0  0  0
 13 14  2  0  0  0  0
 13105  1  0  0  0  0
 14 15  1  0  0  0  0
 14106  1  0  0  0  0
 15107  1  0  0  0  0
 16 17  1  0  0  0  0
 16108  1  0  0  0  0
 17 18  2  0  0  0  0
 17 19  1  0  0  0  0
 19 20  1  0  0  0  0
 19 23  1  0  0  0  0
 19109  1  6  0  0  0
 20 21  1  0  0  0  0
 20110  1  0  0  0  0
 20111  1  0  0  0  0
 21 22  1  0  0  0  0
 21112  1  0  0  0  0
 21113  1  0  0  0  0
 22 23  1  0  0  0  0
 22114  1  0  0  0  0
 22115  1  0  0  0  0
 23 24  1  0  0  0  0
 24 25  2  0  0  0  0
 26 44  1  0  0  0  0
 26 27  1  0  0  0  0
 26 24  1  0  0  0  0
 26116  1  1  0  0  0
 27 28  1  0  0  0  0
 27117  1  0  0  0  0
 28 29  1  0  0  0  0
 28 33  2  0  0  0  0
 29 30  2  0  0  0  0
 29118  1  0  0  0  0
 30 31  1  0  0  0  0
 30119  1  0  0  0  0
 31 32  2  0  0  0  0
 31 38  1  0  0  0  0
 32 33  1  0  0  0  0
 32 34  1  0  0  0  0
 33120  1  0  0  0  0
 34 35  2  0  0  0  0
 34 36  1  0  0  0  0
 36 37  1  0  0  0  0
 36 43  2  0  0  0  0
 37 38  1  0  0  0  0
 37 40  2  0  0  0  0
 38 39  2  0  0  0  0
 40 41  1  0  0  0  0
 40121  1  0  0  0  0
 41 42  2  0  0  0  0
 41122  1  0  0  0  0
 42 43  1  0  0  0  0
 42123  1  0  0  0  0
 43124  1  0  0  0  0
 44 45  1  0  0  0  0
 44125  1  0  0  0  0
 44126  1  0  0  0  0
 45 46  1  0  0  0  0
 46 47  1  0  0  0  0
 47 48  1  0  0  0  0
 47127  1  0  0  0  0
 47128  1  0  0  0  0
 48 49  1  0  0  0  0
 48 74  1  0  0  0  0
 48129  1  1  0  0  0
 49 50  2  0  0  0  0
 49 51  1  0  0  0  0
 51 52  1  0  0  0  0
 51 55  1  0  0  0  0
 52 53  1  0  0  0  0
 52130  1  0  0  0  0
 52131  1  0  0  0  0
 53 54  1  0  0  0  0
 53132  1  0  0  0  0
 53133  1  0  0  0  0
 54 55  1  0  0  0  0
 54134  1  0  0  0  0
 54135  1  0  0  0  0
 55 56  1  0  0  0  0
 55136  1  1  0  0  0
 56 57  2  0  0  0  0
 56 58  1  0  0  0  0
 58137  1  0  0  0  0
 59 67  1  0  0  0  0
 59 60  1  0  0  0  0
 59 58  1  0  0  0  0
 59138  1  6  0  0  0
 60 61  2  0  0  0  0
 60 62  1  0  0  0  0
 62 63  1  0  0  0  0
 62139  1  0  0  0  0
 63 64  1  0  0  0  0
 63140  1  0  0  0  0
 63141  1  0  0  0  0
 64 65  1  0  0  0  0
 64142  1  0  0  0  0
 64143  1  0  0  0  0
 65 66  1  0  0  0  0
 65144  1  0  0  0  0
 65145  1  0  0  0  0
 66146  1  0  0  0  0
 66147  1  0  0  0  0
 67 68  1  0  0  0  0
 67148  1  0  0  0  0
 67149  1  0  0  0  0
 68 69  1  0  0  0  0
 68 73  2  0  0  0  0
 69 70  2  0  0  0  0
 69150  1  0  0  0  0
 70 71  1  0  0  0  0
 70151  1  0  0  0  0
 71 72  2  0  0  0  0
 71152  1  0  0  0  0
 72 73  1  0  0  0  0
 72153  1  0  0  0  0
 73154  1  0  0  0  0
 74 75  1  0  0  0  0
 74155  1  0  0  0  0
 75 76  1  0  0  0  0
 75 80  2  0  0  0  0
 76 77  2  0  0  0  0
 76156  1  0  0  0  0
 77 78  1  0  0  0  0
 77157  1  0  0  0  0
 78 79  2  0  0  0  0
 78 85  1  0  0  0  0
 79 80  1  0  0  0  0
 79 81  1  0  0  0  0
 80158  1  0  0  0  0
 81 82  2  0  0  0  0
 81 83  1  0  0  0  0
 83 84  1  0  0  0  0
 83 90  2  0  0  0  0
 84 85  1  0  0  0  0
 84 87  2  0  0  0  0
 85 86  2  0  0  0  0
 87 88  1  0  0  0  0
 87159  1  0  0  0  0
 88 89  2  0  0  0  0
 88160  1  0  0  0  0
 89 90  1  0  0  0  0
 89161  1  0  0  0  0
 90162  1  0  0  0  0
M  END
$$$$
Target_lig_1228
 OpenBabel04172516583D

 25 26  0  0  1  0  0  0  0  0999 V2000
    8.7963   -1.5254    2.1881 C   0  0  0  0  0  0  0  0  0  0  0  0
    7.8909   -1.9419    1.0772 C   0  0  0  0  0  0  0  0  0  0  0  0
    6.8358   -1.2359    0.6377 C   0  0  0  0  0  0  0  0  0  0  0  0
    6.3563   -0.1377    1.3211 N   0  0  0  0  0  0  0  0  0  0  0  0
    5.1455   -0.3390    1.7596 C   0  0  0  0  0  0  0  0  0  0  0  0
    4.5615    0.4301    2.8834 C   0  0  0  0  0  0  0  0  0  0  0  0
    4.1371   -0.3540    3.8942 C   0  0  0  0  0  0  0  0  0  0  0  0
    4.2088   -1.8096    3.8057 C   0  0  0  0  0  0  0  0  0  0  0  0
    4.2119   -2.4068    2.5979 C   0  0  0  0  0  0  0  0  0  0  0  0
    4.2700   -1.5463    1.4148 C   0  0  0  0  0  0  0  0  0  0  0  0
    4.5280   -2.0414    0.1849 C   0  0  0  0  0  0  0  0  0  0  0  0
    5.8933   -1.8166   -0.3050 C   0  0  3  0  0  3  0  0  0  0  0  0
    6.2997   -2.3102   -1.6391 C   0  0  0  0  0  0  0  0  0  0  0  0
    5.7263   -3.2131   -2.2212 O   0  0  0  0  0  0  0  0  0  0  0  0
    7.3580   -1.6523   -2.1655 O   0  0  0  0  0  0  0  0  0  0  0  0
    8.2836   -1.5405    3.1552 H   0  0  0  0  0  0  0  0  0  0  0  0
    9.2039   -0.5281    2.0063 H   0  0  0  0  0  0  0  0  0  0  0  0
    9.6377   -2.2231    2.2473 H   0  0  0  0  0  0  0  0  0  0  0  0
    8.0654   -2.9402    0.6814 H   0  0  0  0  0  0  0  0  0  0  0  0
    4.5835    1.5093    2.8880 H   0  0  0  0  0  0  0  0  0  0  0  0
    3.7672    0.0767    4.8180 H   0  0  0  0  0  0  0  0  0  0  0  0
    4.3195   -2.3844    4.7207 H   0  0  0  0  0  0  0  0  0  0  0  0
    4.3289   -3.4805    2.4866 H   0  0  0  0  0  0  0  0  0  0  0  0
    3.8023   -1.8065   -0.6007 H   0  0  0  0  0  0  0  0  0  0  0  0
    7.6754   -0.9069   -1.6181 H   0  0  0  0  0  0  0  0  0  0  0  0
  1  2  1  0  0  0  0
  1 16  1  0  0  0  0
  1 17  1  0  0  0  0
  1 18  1  0  0  0  0
  2  3  2  3  0  0  0
  2 19  1  0  0  0  0
  3  4  1  0  0  0  0
  3 12  1  0  0  0  0
  4  5  2  0  0  0  0
  5  6  1  0  0  0  0
  5 10  1  0  0  0  0
  6  7  2  0  0  0  0
  6 20  1  0  0  0  0
  7  8  1  0  0  0  0
  7 21  1  0  0  0  0
  8  9  2  0  0  0  0
  8 22  1  0  0  0  0
  9 10  1  0  0  0  0
  9 23  1  0  0  0  0
 10 11  2  3  0  0  0
 11 12  1  0  0  0  0
 11 24  1  0  0  0  0
 12 13  1  0  0  0  0
 13 14  2  0  0  0  0
 13 15  1  0  0  0  0
 15 25  1  0  0  0  0
M  END
$$$$
Target_lig_1229
 OpenBabel04172516583D

 86 89  0  0  1  0  0  0  0  0999 V2000
    5.4287   -2.0056   -3.4112 C   0  0  0  0  0  0  0  0  0  0  0  0
    5.1683   -2.2419   -2.1177 C   0  0  0  0  0  0  0  0  0  0  0  0
    6.1691   -2.4170   -0.9906 C   0  0  0  0  0  0  0  0  0  0  0  0
    6.0014   -1.4678    0.2401 C   0  0  1  0  0  0  0  0  0  0  0  0
    4.5648   -1.4887    0.8346 C   0  0  0  0  0  0  0  0  0  0  0  0
    3.6784   -2.2128    0.3757 O   0  0  0  0  0  0  0  0  0  0  0  0
    4.2085   -0.5839    1.8155 N   0  0  0  0  0  0  0  0  0  0  0  0
    2.8194   -0.3122    2.1002 C   0  0  0  0  0  0  0  0  0  0  0  0
    2.8759    1.0691    2.7120 C   0  0  0  0  0  0  0  0  0  0  0  0
    4.1780    1.0761    3.5097 C   0  0  0  0  0  0  0  0  0  0  0  0
    5.0048   -0.0832    2.9284 C   0  0  3  0  0  0  0  0  0  0  0  0
    5.1324   -1.1335    4.0500 C   0  0  0  0  0  0  0  0  0  0  0  0
    5.3948   -0.7998    5.2075 O   0  0  0  0  0  0  0  0  0  0  0  0
    5.0356   -2.4501    3.6685 N   0  0  0  0  0  0  0  0  0  0  0  0
    5.2151   -3.5737    4.5911 C   0  0  3  0  0  0  0  0  0  0  0  0
    6.4889   -3.3177    5.4460 C   0  0  0  0  0  0  0  0  0  0  0  0
    7.4029   -2.5786    5.0784 O   0  0  0  0  0  0  0  0  0  0  0  0
    6.6341   -3.9772    6.6417 N   0  0  0  0  0  0  0  0  0  0  0  0
    7.6781   -3.5233    7.5427 C   0  0  0  0  0  0  0  0  0  0  0  0
    7.3482   -2.1783    8.2054 C   0  0  0  0  0  0  0  0  0  0  0  0
    6.0846   -2.2669    9.0589 C   0  0  0  0  0  0  0  0  0  0  0  0
    5.8658   -1.0372    9.8094 N   0  0  0  0  0  0  0  0  0  0  0  0
    3.9506   -3.8394    5.4133 C   0  0  0  0  0  0  0  0  0  0  0  0
    2.7090   -4.2187    4.6283 C   0  0  0  0  0  0  0  0  0  0  0  0
    2.6799   -5.3618    3.8102 C   0  0  0  0  0  0  0  0  0  0  0  0
    1.4880   -5.7525    3.1881 C   0  0  0  0  0  0  0  0  0  0  0  0
    0.3236   -5.0113    3.3709 C   0  0  0  0  0  0  0  0  0  0  0  0
    0.3454   -3.8717    4.1701 C   0  0  0  0  0  0  0  0  0  0  0  0
    1.5305   -3.4769    4.7951 C   0  0  0  0  0  0  0  0  0  0  0  0
    7.0628   -1.5956    1.2583 N   0  0  0  0  0  0  0  0  0  0  0  0
    7.4393   -2.7729    1.9070 C   0  0  0  0  0  0  0  0  0  0  0  0
    6.8408   -3.8257    1.7313 O   0  0  0  0  0  0  0  0  0  0  0  0
    8.6321   -2.7254    2.8979 C   0  0  0  0  0  0  0  0  0  0  0  0
    9.3438   -1.5419    2.9345 C   0  0  0  0  0  0  0  0  0  0  0  0
   10.0786   -1.3166    1.8020 C   0  0  0  0  0  0  0  0  0  0  0  0
   10.0271   -0.0404    1.2476 C   0  0  0  0  0  0  0  0  0  0  0  0
   10.0013    0.0322   -0.1371 C   0  0  0  0  0  0  0  0  0  0  0  0
   10.1917   -1.1230   -0.9025 C   0  0  0  0  0  0  0  0  0  0  0  0
   10.5047   -2.3494   -0.2774 C   0  0  0  0  0  0  0  0  0  0  0  0
   10.4184   -2.4749    1.0861 C   0  0  0  0  0  0  0  0  0  0  0  0
   10.3811   -3.6869    1.6754 N   0  0  0  0  0  0  0  0  0  0  0  0
    9.4775   -3.7941    2.6808 C   0  0  0  0  0  0  0  0  0  0  0  0
    9.7386   -4.7329    3.8401 C   0  0  0  0  0  0  0  0  0  0  0  0
   10.0691   -6.1612    3.4548 C   0  0  0  0  0  0  0  0  0  0  0  0
    4.6149   -1.9565   -4.1283 H   0  0  0  0  0  0  0  0  0  0  0  0
    6.4385   -1.8894   -3.7930 H   0  0  0  0  0  0  0  0  0  0  0  0
    4.1166   -2.3977   -1.8641 H   0  0  0  0  0  0  0  0  0  0  0  0
    7.1815   -2.2943   -1.3965 H   0  0  0  0  0  0  0  0  0  0  0  0
    6.0933   -3.4589   -0.6597 H   0  0  0  0  0  0  0  0  0  0  0  0
    6.1244   -0.4447   -0.1530 H   0  0  0  0  0  0  0  0  0  0  0  0
    2.4681   -1.0631    2.8171 H   0  0  0  0  0  0  0  0  0  0  0  0
    2.1971   -0.3551    1.2024 H   0  0  0  0  0  0  0  0  0  0  0  0
    2.0026    1.2936    3.3330 H   0  0  0  0  0  0  0  0  0  0  0  0
    2.9399    1.8307    1.9248 H   0  0  0  0  0  0  0  0  0  0  0  0
    3.9443    0.9400    4.5718 H   0  0  0  0  0  0  0  0  0  0  0  0
    4.6995    2.0354    3.4246 H   0  0  0  0  0  0  0  0  0  0  0  0
    6.0023    0.2448    2.6018 H   0  0  0  0  0  0  0  0  0  0  0  0
    4.6000   -2.6750    2.7814 H   0  0  0  0  0  0  0  0  0  0  0  0
    5.4418   -4.4418    3.9598 H   0  0  0  0  0  0  0  0  0  0  0  0
    5.8729   -4.5155    7.0262 H   0  0  0  0  0  0  0  0  0  0  0  0
    8.6109   -3.4153    6.9710 H   0  0  0  0  0  0  0  0  0  0  0  0
    7.8334   -4.3046    8.2850 H   0  0  0  0  0  0  0  0  0  0  0  0
    7.2265   -1.3913    7.4522 H   0  0  0  0  0  0  0  0  0  0  0  0
    8.2033   -1.8866    8.8281 H   0  0  0  0  0  0  0  0  0  0  0  0
    6.1663   -3.1053    9.7574 H   0  0  0  0  0  0  0  0  0  0  0  0
    5.2111   -2.4467    8.4222 H   0  0  0  0  0  0  0  0  0  0  0  0
    6.6768   -0.8286   10.3882 H   0  0  0  0  0  0  0  0  0  0  0  0
    5.0763   -1.1591   10.4412 H   0  0  0  0  0  0  0  0  0  0  0  0
    3.7403   -2.9650    6.0402 H   0  0  0  0  0  0  0  0  0  0  0  0
    4.1207   -4.6730    6.1028 H   0  0  0  0  0  0  0  0  0  0  0  0
    3.5646   -5.9699    3.6661 H   0  0  0  0  0  0  0  0  0  0  0  0
    1.4692   -6.6443    2.5660 H   0  0  0  0  0  0  0  0  0  0  0  0
   -0.6027   -5.3250    2.8947 H   0  0  0  0  0  0  0  0  0  0  0  0
   -0.5638   -3.2953    4.3187 H   0  0  0  0  0  0  0  0  0  0  0  0
    1.5222   -2.5939    5.4290 H   0  0  0  0  0  0  0  0  0  0  0  0
    7.6071   -0.7652    1.4281 H   0  0  0  0  0  0  0  0  0  0  0  0
    9.6331   -1.0972    3.8850 H   0  0  0  0  0  0  0  0  0  0  0  0
    9.7598    0.8257    1.8422 H   0  0  0  0  0  0  0  0  0  0  0  0
    9.7081    0.9602   -0.6201 H   0  0  0  0  0  0  0  0  0  0  0  0
   10.0191   -1.1031   -1.9712 H   0  0  0  0  0  0  0  0  0  0  0  0
   10.6020   -3.2504   -0.8868 H   0  0  0  0  0  0  0  0  0  0  0  0
    8.8558   -4.7643    4.4914 H   0  0  0  0  0  0  0  0  0  0  0  0
   10.5567   -4.3191    4.4456 H   0  0  0  0  0  0  0  0  0  0  0  0
    9.2458   -6.6180    2.8973 H   0  0  0  0  0  0  0  0  0  0  0  0
   10.2359   -6.7587    4.3587 H   0  0  0  0  0  0  0  0  0  0  0  0
   10.9756   -6.2144    2.8453 H   0  0  0  0  0  0  0  0  0  0  0  0
  1  2  2  0  0  0  0
  1 45  1  0  0  0  0
  1 46  1  0  0  0  0
  2  3  1  0  0  0  0
  2 47  1  0  0  0  0
  3  4  1  0  0  0  0
  3 48  1  0  0  0  0
  3 49  1  0  0  0  0
  4  5  1  0  0  0  0
  4 30  1  0  0  0  0
  4 50  1  6  0  0  0
  5  6  2  0  0  0  0
  5  7  1  0  0  0  0
  7  8  1  0  0  0  0
  7 11  1  0  0  0  0
  8  9  1  0  0  0  0
  8 51  1  0  0  0  0
  8 52  1  0  0  0  0
  9 10  1  0  0  0  0
  9 53  1  0  0  0  0
  9 54  1  0  0  0  0
 10 11  1  0  0  0  0
 10 55  1  0  0  0  0
 10 56  1  0  0  0  0
 11 12  1  0  0  0  0
 11 57  1  0  0  0  0
 12 13  2  0  0  0  0
 12 14  1  0  0  0  0
 14 15  1  0  0  0  0
 14 58  1  0  0  0  0
 15 16  1  0  0  0  0
 15 23  1  0  0  0  0
 15 59  1  0  0  0  0
 16 17  2  0  0  0  0
 16 18  1  0  0  0  0
 18 19  1  0  0  0  0
 18 60  1  0  0  0  0
 19 20  1  0  0  0  0
 19 61  1  0  0  0  0
 19 62  1  0  0  0  0
 20 21  1  0  0  0  0
 20 63  1  0  0  0  0
 20 64  1  0  0  0  0
 21 22  1  0  0  0  0
 21 65  1  0  0  0  0
 21 66  1  0  0  0  0
 22 67  1  0  0  0  0
 22 68  1  0  0  0  0
 23 24  1  0  0  0  0
 23 69  1  0  0  0  0
 23 70  1  0  0  0  0
 24 25  1  0  0  0  0
 24 29  2  0  0  0  0
 25 26  2  0  0  0  0
 25 71  1  0  0  0  0
 26 27  1  0  0  0  0
 26 72  1  0  0  0  0
 27 28  2  0  0  0  0
 27 73  1  0  0  0  0
 28 29  1  0  0  0  0
 28 74  1  0  0  0  0
 29 75  1  0  0  0  0
 30 31  1  0  0  0  0
 30 76  1  0  0  0  0
 31 32  2  0  0  0  0
 31 33  1  0  0  0  0
 33 34  1  0  0  0  0
 33 42  2  0  0  0  0
 34 35  2  0  0  0  0
 34 77  1  0  0  0  0
 35 36  1  0  0  0  0
 35 40  1  0  0  0  0
 36 37  2  0  0  0  0
 36 78  1  0  0  0  0
 37 38  1  0  0  0  0
 37 79  1  0  0  0  0
 38 39  2  0  0  0  0
 38 80  1  0  0  0  0
 39 40  1  0  0  0  0
 39 81  1  0  0  0  0
 40 41  2  0  0  0  0
 41 42  1  0  0  0  0
 42 43  1  0  0  0  0
 43 44  1  0  0  0  0
 43 82  1  0  0  0  0
 43 83  1  0  0  0  0
 44 84  1  0  0  0  0
 44 85  1  0  0  0  0
 44 86  1  0  0  0  0
M  END
$$$$
Target_lig_1230
 OpenBabel04172516583D

166173  0  0  1  0  0  0  0  0999 V2000
   13.0868   -2.5394   -9.3491 N   0  0  0  0  0  0  0  0  0  0  0  0
   14.1007   -1.5332   -9.5666 C   0  0  0  0  0  0  0  0  0  0  0  0
   14.0191   -0.4672   -8.4871 C   0  0  0  0  0  0  0  0  0  0  0  0
   15.0879    0.5841   -8.7463 C   0  0  0  0  0  0  0  0  0  0  0  0
   15.0887    1.5517   -7.6832 N   0  0  0  0  0  0  0  0  0  0  0  0
   15.8362    1.3426   -6.5397 C   0  0  0  0  0  0  0  0  0  0  0  0
   16.5977    0.3962   -6.3769 O   0  0  0  0  0  0  0  0  0  0  0  0
   15.6342    2.4396   -5.5042 C   0  0  3  0  0  0  0  0  0  0  0  0
   16.1046    3.7914   -6.1257 C   0  0  0  0  0  0  0  0  0  0  0  0
   17.5550    3.8930   -6.6054 C   0  0  0  0  0  0  0  0  0  0  0  0
   17.8703    4.2304   -7.9397 C   0  0  0  0  0  0  0  0  0  0  0  0
   19.2001    4.4467   -8.3381 C   0  0  0  0  0  0  0  0  0  0  0  0
   20.2399    4.3139   -7.4230 C   0  0  0  0  0  0  0  0  0  0  0  0
   19.9515    3.9400   -6.1139 C   0  0  0  0  0  0  0  0  0  0  0  0
   18.6226    3.7277   -5.6969 C   0  0  0  0  0  0  0  0  0  0  0  0
   14.1838    2.4049   -5.1261 N   0  0  0  0  0  0  0  0  0  0  0  0
   13.7485    2.8143   -3.8914 C   0  0  0  0  0  0  0  0  0  0  0  0
   14.5287    3.4020   -3.1350 O   0  0  0  0  0  0  0  0  0  0  0  0
   12.1975    2.7766   -3.5849 C   0  0  3  0  0  0  0  0  0  0  0  0
   12.0696    2.9029   -2.0443 C   0  0  0  0  0  0  0  0  0  0  0  0
   10.6068    2.6394   -1.7713 C   0  0  0  0  0  0  0  0  0  0  0  0
   10.2782    1.5278   -2.7619 C   0  0  0  0  0  0  0  0  0  0  0  0
   11.1423    1.7549   -3.9342 N   0  0  0  0  0  0  0  0  0  0  0  0
   10.8767    1.4086   -5.2633 C   0  0  0  0  0  0  0  0  0  0  0  0
   11.8076    1.5016   -6.0801 O   0  0  0  0  0  0  0  0  0  0  0  0
    9.3868    1.0169   -5.7933 C   0  0  3  0  0  0  0  0  0  0  0  0
    8.9081   -0.4270   -5.3894 N   0  0  0  0  0  0  0  0  0  0  0  0
    8.1845   -1.4247   -6.1227 C   0  0  0  0  0  0  0  0  0  0  0  0
    6.9724   -1.2018   -6.1691 O   0  0  0  0  0  0  0  0  0  0  0  0
    8.6947   -2.8766   -6.5390 C   0  0  0  0  0  0  0  0  0  0  0  0
    7.9585   -3.8945   -7.2244 C   0  0  0  0  0  0  0  0  0  0  0  0
    8.3260   -4.3689   -8.5312 C   0  0  0  0  0  0  0  0  0  0  0  0
    7.5093   -4.9312   -9.5789 C   0  0  0  0  0  0  0  0  0  0  0  0
    7.4983   -4.2371  -10.7947 C   0  0  0  0  0  0  0  0  0  0  0  0
    8.3877   -3.1783  -10.9395 C   0  0  0  0  0  0  0  0  0  0  0  0
    9.4386   -3.0354  -10.0257 C   0  0  0  0  0  0  0  0  0  0  0  0
    9.5030   -3.7819   -8.8674 C   0  0  0  0  0  0  0  0  0  0  0  0
   10.4436   -3.5738   -7.9178 N   0  0  0  0  0  0  0  0  0  0  0  0
   10.0087   -3.1531   -6.7021 C   0  0  0  0  0  0  0  0  0  0  0  0
   10.6880   -3.7316   -5.4699 C   0  0  0  0  0  0  0  0  0  0  0  0
   10.8853   -2.6432   -4.4392 C   0  0  0  0  0  0  0  0  0  0  0  0
    8.4758    2.3093   -5.3628 C   0  0  0  0  0  0  0  0  0  0  0  0
    7.1278    2.7169   -5.9258 C   0  0  0  0  0  0  0  0  0  0  0  0
    6.3363    3.7034   -5.4411 C   0  0  0  0  0  0  0  0  0  0  0  0
    5.0107    4.2550   -5.9918 C   0  0  0  0  0  0  0  0  0  0  0  0
    4.1504    3.5138   -7.0613 C   0  0  1  0  0  0  0  0  0  0  0  0
    3.5618    2.1805   -6.4387 C   0  0  0  0  0  0  0  0  0  0  0  0
    4.1879    1.5820   -5.5518 O   0  0  0  0  0  0  0  0  0  0  0  0
    2.4827    1.5500   -6.9953 N   0  0  0  0  0  0  0  0  0  0  0  0
    1.5637    2.0202   -7.9988 C   0  0  0  0  0  0  0  0  0  0  0  0
    0.2442    1.4590   -7.4965 C   0  0  0  0  0  0  0  0  0  0  0  0
    0.5908    0.0773   -6.9677 C   0  0  0  0  0  0  0  0  0  0  0  0
    2.0676    0.2033   -6.5880 C   0  0  3  0  0  0  0  0  0  0  0  0
    2.7971   -0.7538   -7.5033 C   0  0  0  0  0  0  0  0  0  0  0  0
    2.5378   -0.8718   -8.7019 O   0  0  0  0  0  0  0  0  0  0  0  0
    3.8261   -1.4218   -6.9132 N   0  0  0  0  0  0  0  0  0  0  0  0
    4.5781   -2.2801   -7.7811 C   0  0  3  0  0  0  0  0  0  0  0  0
    5.6422   -1.4768   -8.5759 C   0  0  0  0  0  0  0  0  0  0  0  0
    6.3379   -2.0167   -9.4263 O   0  0  0  0  0  0  0  0  0  0  0  0
    5.7530   -0.1215   -8.3268 N   0  0  0  0  0  0  0  0  0  0  0  0
    6.8850    0.6238   -8.8424 C   0  0  0  0  0  0  0  0  0  0  0  0
    7.0069    0.7518  -10.3500 C   0  0  0  0  0  0  0  0  0  0  0  0
    8.1892    1.6523  -10.7254 C   0  0  0  0  0  0  0  0  0  0  0  0
    8.0663    2.9972  -10.1612 N   0  0  0  0  0  0  0  0  0  0  0  0
    5.0952   -3.4657   -6.9978 C   0  0  0  0  0  0  0  0  0  0  0  0
    4.0920   -4.3400   -6.3002 C   0  0  0  0  0  0  0  0  0  0  0  0
    3.2317   -5.1228   -7.0720 C   0  0  0  0  0  0  0  0  0  0  0  0
    2.2955   -5.9398   -6.4554 C   0  0  0  0  0  0  0  0  0  0  0  0
    2.2273   -5.9948   -5.0636 C   0  0  0  0  0  0  0  0  0  0  0  0
    3.1133   -5.2484   -4.2851 C   0  0  0  0  0  0  0  0  0  0  0  0
    4.0500   -4.4238   -4.9010 C   0  0  0  0  0  0  0  0  0  0  0  0
    3.3657    4.5013   -7.9870 N   0  0  0  0  0  0  0  0  0  0  0  0
    2.3693    5.4308   -7.7502 C   0  0  0  0  0  0  0  0  0  0  0  0
    1.7913    5.5301   -6.6524 O   0  0  0  0  0  0  0  0  0  0  0  0
    1.9328    6.3990   -8.9818 C   0  0  0  0  0  0  0  0  0  0  0  0
    1.7648    7.7814   -8.7998 C   0  0  0  0  0  0  0  0  0  0  0  0
    2.9146    8.6070   -8.6272 C   0  0  0  0  0  0  0  0  0  0  0  0
    3.0142    9.9369   -8.1381 C   0  0  0  0  0  0  0  0  0  0  0  0
    3.6882   10.1066   -6.9360 C   0  0  0  0  0  0  0  0  0  0  0  0
    4.1994    8.9618   -6.3565 C   0  0  0  0  0  0  0  0  0  0  0  0
    4.3989    7.8461   -7.1864 C   0  0  0  0  0  0  0  0  0  0  0  0
    4.0039    7.8180   -8.5357 C   0  0  0  0  0  0  0  0  0  0  0  0
    4.1102    6.8190   -9.5009 N   0  0  0  0  0  0  0  0  0  0  0  0
    2.9364    6.2740   -9.8837 C   0  0  0  0  0  0  0  0  0  0  0  0
    2.5876    5.6228  -11.1919 C   0  0  0  0  0  0  0  0  0  0  0  0
    3.7323    5.1283  -12.0376 C   0  0  0  0  0  0  0  0  0  0  0  0
   13.0636   -3.2131  -10.1096 H   0  0  0  0  0  0  0  0  0  0  0  0
   12.1557   -2.1315   -9.2831 H   0  0  0  0  0  0  0  0  0  0  0  0
   13.9714   -1.0781  -10.5544 H   0  0  0  0  0  0  0  0  0  0  0  0
   15.0852   -2.0125   -9.5402 H   0  0  0  0  0  0  0  0  0  0  0  0
   14.1568   -0.9152   -7.4944 H   0  0  0  0  0  0  0  0  0  0  0  0
   13.0305    0.0049   -8.4793 H   0  0  0  0  0  0  0  0  0  0  0  0
   14.8773    1.1221   -9.6799 H   0  0  0  0  0  0  0  0  0  0  0  0
   16.0753    0.1282   -8.8247 H   0  0  0  0  0  0  0  0  0  0  0  0
   14.3217    2.2153   -7.6216 H   0  0  0  0  0  0  0  0  0  0  0  0
   16.2318    2.2003   -4.6182 H   0  0  0  0  0  0  0  0  0  0  0  0
   15.9401    4.5933   -5.3983 H   0  0  0  0  0  0  0  0  0  0  0  0
   15.4559    4.0459   -6.9748 H   0  0  0  0  0  0  0  0  0  0  0  0
   17.0913    4.3447   -8.6845 H   0  0  0  0  0  0  0  0  0  0  0  0
   19.4277    4.7343   -9.3659 H   0  0  0  0  0  0  0  0  0  0  0  0
   21.2651    4.5050   -7.7241 H   0  0  0  0  0  0  0  0  0  0  0  0
   20.7637    3.8191   -5.3991 H   0  0  0  0  0  0  0  0  0  0  0  0
   18.4312    3.4413   -4.6792 H   0  0  0  0  0  0  0  0  0  0  0  0
   13.5480    1.7681   -5.6174 H   0  0  0  0  0  0  0  0  0  0  0  0
   11.8182    3.7059   -4.0336 H   0  0  0  0  0  0  0  0  0  0  0  0
   12.3864    3.8845   -1.6735 H   0  0  0  0  0  0  0  0  0  0  0  0
   12.6802    2.1447   -1.5349 H   0  0  0  0  0  0  0  0  0  0  0  0
   10.0270    3.5472   -1.9813 H   0  0  0  0  0  0  0  0  0  0  0  0
   10.4132    2.3538   -0.7317 H   0  0  0  0  0  0  0  0  0  0  0  0
    9.2147    1.5098   -2.9627 H   0  0  0  0  0  0  0  0  0  0  0  0
   10.5249    0.5483   -2.3438 H   0  0  0  0  0  0  0  0  0  0  0  0
    9.4444    1.0319   -6.8901 H   0  0  0  0  0  0  0  0  0  0  0  0
    8.1677   -0.1663   -4.7504 H   0  0  0  0  0  0  0  0  0  0  0  0
    7.2094   -4.4531   -6.6811 H   0  0  0  0  0  0  0  0  0  0  0  0
    6.7616   -5.7043   -9.4299 H   0  0  0  0  0  0  0  0  0  0  0  0
    6.7014   -4.3763  -11.5276 H   0  0  0  0  0  0  0  0  0  0  0  0
    8.2060   -2.3948  -11.6696 H   0  0  0  0  0  0  0  0  0  0  0  0
   10.0861   -2.1713  -10.0670 H   0  0  0  0  0  0  0  0  0  0  0  0
   11.6375   -4.2024   -5.7369 H   0  0  0  0  0  0  0  0  0  0  0  0
   10.0597   -4.5323   -5.0409 H   0  0  0  0  0  0  0  0  0  0  0  0
   11.3247   -1.7592   -4.9104 H   0  0  0  0  0  0  0  0  0  0  0  0
   11.5347   -2.9802   -3.6317 H   0  0  0  0  0  0  0  0  0  0  0  0
    9.9273   -2.3588   -3.9881 H   0  0  0  0  0  0  0  0  0  0  0  0
    9.1205    3.1888   -5.5360 H   0  0  0  0  0  0  0  0  0  0  0  0
    8.2949    2.2840   -4.2945 H   0  0  0  0  0  0  0  0  0  0  0  0
    6.8040    2.2137   -6.8053 H   0  0  0  0  0  0  0  0  0  0  0  0
    6.6727    4.2417   -4.5515 H   0  0  0  0  0  0  0  0  0  0  0  0
    5.3134    5.2079   -6.4206 H   0  0  0  0  0  0  0  0  0  0  0  0
    4.3573    4.4852   -5.1395 H   0  0  0  0  0  0  0  0  0  0  0  0
    4.8815    3.1002   -7.7760 H   0  0  0  0  0  0  0  0  0  0  0  0
    1.8690    1.5867   -8.9588 H   0  0  0  0  0  0  0  0  0  0  0  0
    1.5214    3.0923   -8.0867 H   0  0  0  0  0  0  0  0  0  0  0  0
   -0.5267    1.4405   -8.2667 H   0  0  0  0  0  0  0  0  0  0  0  0
   -0.1035    2.0651   -6.6524 H   0  0  0  0  0  0  0  0  0  0  0  0
    0.4040   -0.6778   -7.7433 H   0  0  0  0  0  0  0  0  0  0  0  0
   -0.0206   -0.2171   -6.1104 H   0  0  0  0  0  0  0  0  0  0  0  0
    2.2738   -0.0089   -5.5332 H   0  0  0  0  0  0  0  0  0  0  0  0
    4.2321   -1.0968   -6.0403 H   0  0  0  0  0  0  0  0  0  0  0  0
    3.9195   -2.6844   -8.5595 H   0  0  0  0  0  0  0  0  0  0  0  0
    5.4634    0.1182   -7.3832 H   0  0  0  0  0  0  0  0  0  0  0  0
    7.8004    0.2081   -8.4106 H   0  0  0  0  0  0  0  0  0  0  0  0
    6.7503    1.6341   -8.4812 H   0  0  0  0  0  0  0  0  0  0  0  0
    6.0740    1.1582  -10.7568 H   0  0  0  0  0  0  0  0  0  0  0  0
    7.1603   -0.2261  -10.8102 H   0  0  0  0  0  0  0  0  0  0  0  0
    8.2550    1.7203  -11.8154 H   0  0  0  0  0  0  0  0  0  0  0  0
    9.1255    1.2128  -10.3628 H   0  0  0  0  0  0  0  0  0  0  0  0
    7.1701    3.3944  -10.4447 H   0  0  0  0  0  0  0  0  0  0  0  0
    8.7752    3.6018  -10.5784 H   0  0  0  0  0  0  0  0  0  0  0  0
    5.7853   -3.1255   -6.2265 H   0  0  0  0  0  0  0  0  0  0  0  0
    5.5898   -4.1236   -7.7115 H   0  0  0  0  0  0  0  0  0  0  0  0
    3.3022   -5.0976   -8.1573 H   0  0  0  0  0  0  0  0  0  0  0  0
    1.6206   -6.5316   -7.0656 H   0  0  0  0  0  0  0  0  0  0  0  0
    1.4857   -6.6259   -4.5868 H   0  0  0  0  0  0  0  0  0  0  0  0
    3.0719   -5.3092   -3.2010 H   0  0  0  0  0  0  0  0  0  0  0  0
    4.7457   -3.8558   -4.2851 H   0  0  0  0  0  0  0  0  0  0  0  0
    3.9540    4.6381   -8.8146 H   0  0  0  0  0  0  0  0  0  0  0  0
    0.7908    8.2370   -8.9241 H   0  0  0  0  0  0  0  0  0  0  0  0
    2.5095   10.7759   -8.6055 H   0  0  0  0  0  0  0  0  0  0  0  0
    3.6937   11.0532   -6.4031 H   0  0  0  0  0  0  0  0  0  0  0  0
    4.3902    8.9026   -5.2881 H   0  0  0  0  0  0  0  0  0  0  0  0
    4.5909    6.9040   -6.7009 H   0  0  0  0  0  0  0  0  0  0  0  0
    1.9780    6.3279  -11.7758 H   0  0  0  0  0  0  0  0  0  0  0  0
    1.9319    4.7653  -10.9788 H   0  0  0  0  0  0  0  0  0  0  0  0
    4.3456    5.9603  -12.3922 H   0  0  0  0  0  0  0  0  0  0  0  0
    3.3320    4.6023  -12.9119 H   0  0  0  0  0  0  0  0  0  0  0  0
    4.3608    4.4310  -11.4775 H   0  0  0  0  0  0  0  0  0  0  0  0
  1  2  1  0  0  0  0
  1 87  1  0  0  0  0
  1 88  1  0  0  0  0
  2  3  1  0  0  0  0
  2 89  1  0  0  0  0
  2 90  1  0  0  0  0
  3  4  1  0  0  0  0
  3 91  1  0  0  0  0
  3 92  1  0  0  0  0
  4  5  1  0  0  0  0
  4 93  1  0  0  0  0
  4 94  1  0  0  0  0
  5  6  1  0  0  0  0
  5 95  1  0  0  0  0
  6  7  2  0  0  0  0
  6  8  1  0  0  0  0
  8  9  1  0  0  0  0
  8 16  1  0  0  0  0
  8 96  1  0  0  0  0
  9 10  1  0  0  0  0
  9 97  1  0  0  0  0
  9 98  1  0  0  0  0
 10 11  1  0  0  0  0
 10 15  2  0  0  0  0
 11 12  2  0  0  0  0
 11 99  1  0  0  0  0
 12 13  1  0  0  0  0
 12100  1  0  0  0  0
 13 14  2  0  0  0  0
 13101  1  0  0  0  0
 14 15  1  0  0  0  0
 14102  1  0  0  0  0
 15103  1  0  0  0  0
 16 17  1  0  0  0  0
 16104  1  0  0  0  0
 17 18  2  0  0  0  0
 17 19  1  0  0  0  0
 19 20  1  0  0  0  0
 19 23  1  0  0  0  0
 19105  1  0  0  0  0
 20 21  1  0  0  0  0
 20106  1  0  0  0  0
 20107  1  0  0  0  0
 21 22  1  0  0  0  0
 21108  1  0  0  0  0
 21109  1  0  0  0  0
 22 23  1  0  0  0  0
 22110  1  0  0  0  0
 22111  1  0  0  0  0
 23 24  1  0  0  0  0
 24 25  2  0  0  0  0
 24 26  1  0  0  0  0
 26 27  1  0  0  0  0
 26 42  1  0  0  0  0
 26112  1  0  0  0  0
 27 28  1  0  0  0  0
 27113  1  0  0  0  0
 28 29  2  0  0  0  0
 28 30  1  0  0  0  0
 30 31  1  0  0  0  0
 30 39  2  0  0  0  0
 31 32  2  0  0  0  0
 31114  1  0  0  0  0
 32 33  1  0  0  0  0
 32 37  1  0  0  0  0
 33 34  2  0  0  0  0
 33115  1  0  0  0  0
 34 35  1  0  0  0  0
 34116  1  0  0  0  0
 35 36  2  0  0  0  0
 35117  1  0  0  0  0
 36 37  1  0  0  0  0
 36118  1  0  0  0  0
 37 38  2  0  0  0  0
 38 39  1  0  0  0  0
 39 40  1  0  0  0  0
 40 41  1  0  0  0  0
 40119  1  0  0  0  0
 40120  1  0  0  0  0
 41121  1  0  0  0  0
 41122  1  0  0  0  0
 41123  1  0  0  0  0
 42 43  1  0  0  0  0
 42124  1  0  0  0  0
 42125  1  0  0  0  0
 43 44  2  0  0  0  0
 43126  1  0  0  0  0
 44 45  1  0  0  0  0
 44127  1  0  0  0  0
 45 46  1  0  0  0  0
 45128  1  0  0  0  0
 45129  1  0  0  0  0
 46 47  1  0  0  0  0
 46 72  1  0  0  0  0
 46130  1  6  0  0  0
 47 48  2  0  0  0  0
 47 49  1  0  0  0  0
 49 50  1  0  0  0  0
 49 53  1  0  0  0  0
 50 51  1  0  0  0  0
 50131  1  0  0  0  0
 50132  1  0  0  0  0
 51 52  1  0  0  0  0
 51133  1  0  0  0  0
 51134  1  0  0  0  0
 52 53  1  0  0  0  0
 52135  1  0  0  0  0
 52136  1  0  0  0  0
 53 54  1  0  0  0  0
 53137  1  0  0  0  0
 54 55  2  0  0  0  0
 54 56  1  0  0  0  0
 56 57  1  0  0  0  0
 56138  1  0  0  0  0
 57 58  1  0  0  0  0
 57 65  1  0  0  0  0
 57139  1  0  0  0  0
 58 59  2  0  0  0  0
 58 60  1  0  0  0  0
 60 61  1  0  0  0  0
 60140  1  0  0  0  0
 61 62  1  0  0  0  0
 61141  1  0  0  0  0
 61142  1  0  0  0  0
 62 63  1  0  0  0  0
 62143  1  0  0  0  0
 62144  1  0  0  0  0
 63 64  1  0  0  0  0
 63145  1  0  0  0  0
 63146  1  0  0  0  0
 64147  1  0  0  0  0
 64148  1  0  0  0  0
 65 66  1  0  0  0  0
 65149  1  0  0  0  0
 65150  1  0  0  0  0
 66 67  1  0  0  0  0
 66 71  2  0  0  0  0
 67 68  2  0  0  0  0
 67151  1  0  0  0  0
 68 69  1  0  0  0  0
 68152  1  0  0  0  0
 69 70  2  0  0  0  0
 69153  1  0  0  0  0
 70 71  1  0  0  0  0
 70154  1  0  0  0  0
 71155  1  0  0  0  0
 72 73  1  0  0  0  0
 72156  1  0  0  0  0
 73 74  2  0  0  0  0
 73 75  1  0  0  0  0
 75 76  1  0  0  0  0
 75 84  2  0  0  0  0
 76 77  2  0  0  0  0
 76157  1  0  0  0  0
 77 78  1  0  0  0  0
 77 82  1  0  0  0  0
 78 79  2  0  0  0  0
 78158  1  0  0  0  0
 79 80  1  0  0  0  0
 79159  1  0  0  0  0
 80 81  2  0  0  0  0
 80160  1  0  0  0  0
 81 82  1  0  0  0  0
 81161  1  0  0  0  0
 82 83  2  0  0  0  0
 83 84  1  0  0  0  0
 84 85  1  0  0  0  0
 85 86  1  0  0  0  0
 85162  1  0  0  0  0
 85163  1  0  0  0  0
 86164  1  0  0  0  0
 86165  1  0  0  0  0
 86166  1  0  0  0  0
M  END
$$$$
Target_lig_1231
 OpenBabel04172516583D

 60 64  0  0  0  0  0  0  0  0999 V2000
    2.4617   -3.7285   -3.2923 C   0  0  0  0  0  0  0  0  0  0  0  0
    3.3495   -3.9735   -2.2031 O   0  0  0  0  0  0  0  0  0  0  0  0
    3.0868   -3.2731   -1.0555 C   0  0  0  0  0  0  0  0  0  0  0  0
    1.8408   -2.7803   -0.6978 C   0  0  0  0  0  0  0  0  0  0  0  0
    1.6961   -2.0933    0.5101 C   0  0  0  0  0  0  0  0  0  0  0  0
    2.7647   -1.8684    1.3635 C   0  0  0  0  0  0  0  0  0  0  0  0
    4.0456   -2.3412    1.0177 C   0  0  0  0  0  0  0  0  0  0  0  0
    4.1720   -3.0807   -0.1921 C   0  0  0  0  0  0  0  0  0  0  0  0
    5.1123   -2.0258    1.9162 C   0  0  0  0  0  0  0  0  0  0  0  0
    6.4331   -2.4758    1.6353 N   0  0  0  0  0  0  0  0  0  0  0  0
    7.3540   -3.1972    2.4239 C   0  0  0  0  0  0  0  0  0  0  0  0
    8.7016   -3.2177    2.0463 C   0  0  0  0  0  0  0  0  0  0  0  0
    9.6597   -3.9028    2.7979 C   0  0  0  0  0  0  0  0  0  0  0  0
    9.2774   -4.5951    3.9431 C   0  0  0  0  0  0  0  0  0  0  0  0
    7.9466   -4.5816    4.3666 C   0  0  0  0  0  0  0  0  0  0  0  0
    7.0027   -3.8460    3.6151 C   0  0  0  0  0  0  0  0  0  0  0  0
    7.4752   -5.4262    5.5369 C   0  0  0  0  0  0  0  0  0  0  0  0
    6.3671   -6.3193    5.1594 N   0  0  0  0  0  0  0  0  0  0  0  0
    6.7323   -7.2307    4.0557 C   0  0  0  0  0  0  0  0  0  0  0  0
    5.5307   -8.1046    3.6417 C   0  0  0  0  0  0  0  0  0  0  0  0
    4.9540   -8.9104    4.7342 N   0  0  0  0  0  0  0  0  0  0  0  0
    4.7100   -8.0378    5.9026 C   0  0  0  0  0  0  0  0  0  0  0  0
    5.8874   -7.1121    6.3040 C   0  0  0  0  0  0  0  0  0  0  0  0
    5.8171  -10.0401    5.0700 C   0  0  0  0  0  0  0  0  0  0  0  0
   10.1971   -5.3253    4.6390 O   0  0  0  0  0  0  0  0  0  0  0  0
    4.8407   -1.2601    3.0864 C   0  0  0  0  0  0  0  0  0  0  0  0
    3.5021   -0.9044    3.3293 C   0  0  0  0  0  0  0  0  0  0  0  0
    2.5044   -1.1983    2.4876 N   0  0  0  0  0  0  0  0  0  0  0  0
    3.1759   -0.1991    4.4757 C   0  0  0  0  0  0  0  0  0  0  0  0
    4.1533    0.1979    5.3838 C   0  0  0  0  0  0  0  0  0  0  0  0
    5.4864   -0.0806    5.1372 C   0  0  0  0  0  0  0  0  0  0  0  0
    5.8265   -0.7922    3.9893 C   0  0  0  0  0  0  0  0  0  0  0  0
    3.7072    1.0515    6.8085 Cl  0  0  0  0  0  0  0  0  0  0  0  0
    2.8551   -4.2502   -4.1699 H   0  0  0  0  0  0  0  0  0  0  0  0
    2.4185   -2.6596   -3.5295 H   0  0  0  0  0  0  0  0  0  0  0  0
    1.4611   -4.1273   -3.0965 H   0  0  0  0  0  0  0  0  0  0  0  0
    0.9547   -2.9281   -1.3140 H   0  0  0  0  0  0  0  0  0  0  0  0
    0.7138   -1.7160    0.7881 H   0  0  0  0  0  0  0  0  0  0  0  0
    5.1307   -3.5075   -0.4742 H   0  0  0  0  0  0  0  0  0  0  0  0
    6.7052   -2.3648    0.6645 H   0  0  0  0  0  0  0  0  0  0  0  0
    9.0227   -2.6899    1.1499 H   0  0  0  0  0  0  0  0  0  0  0  0
   10.6948   -3.8972    2.4655 H   0  0  0  0  0  0  0  0  0  0  0  0
    5.9651   -3.8549    3.9435 H   0  0  0  0  0  0  0  0  0  0  0  0
    7.1411   -4.7364    6.3239 H   0  0  0  0  0  0  0  0  0  0  0  0
    8.3006   -6.0101    5.9677 H   0  0  0  0  0  0  0  0  0  0  0  0
    7.5880   -7.8572    4.3360 H   0  0  0  0  0  0  0  0  0  0  0  0
    7.0294   -6.6686    3.1636 H   0  0  0  0  0  0  0  0  0  0  0  0
    5.8190   -8.7483    2.8014 H   0  0  0  0  0  0  0  0  0  0  0  0
    4.7420   -7.4478    3.2489 H   0  0  0  0  0  0  0  0  0  0  0  0
    4.4053   -8.6411    6.7666 H   0  0  0  0  0  0  0  0  0  0  0  0
    3.8440   -7.4045    5.6667 H   0  0  0  0  0  0  0  0  0  0  0  0
    6.7019   -7.7169    6.7251 H   0  0  0  0  0  0  0  0  0  0  0  0
    5.5392   -6.4411    7.0980 H   0  0  0  0  0  0  0  0  0  0  0  0
    5.9729  -10.6734    4.1895 H   0  0  0  0  0  0  0  0  0  0  0  0
    5.3373  -10.6716    5.8254 H   0  0  0  0  0  0  0  0  0  0  0  0
    6.7983   -9.7401    5.4496 H   0  0  0  0  0  0  0  0  0  0  0  0
   11.0206   -5.3650    4.1248 H   0  0  0  0  0  0  0  0  0  0  0  0
    2.1328    0.0490    4.6593 H   0  0  0  0  0  0  0  0  0  0  0  0
    6.2639    0.2448    5.8222 H   0  0  0  0  0  0  0  0  0  0  0  0
    6.8808   -0.9785    3.8010 H   0  0  0  0  0  0  0  0  0  0  0  0
  1  2  1  0  0  0  0
  1 34  1  0  0  0  0
  1 35  1  0  0  0  0
  1 36  1  0  0  0  0
  2  3  1  0  0  0  0
  3  4  1  0  0  0  0
  3  8  2  0  0  0  0
  4  5  2  0  0  0  0
  4 37  1  0  0  0  0
  5  6  1  0  0  0  0
  5 38  1  0  0  0  0
  6  7  1  0  0  0  0
  6 28  2  0  0  0  0
  7  8  1  0  0  0  0
  7  9  2  0  0  0  0
  8 39  1  0  0  0  0
  9 10  1  0  0  0  0
  9 26  1  0  0  0  0
 10 11  1  0  0  0  0
 10 40  1  0  0  0  0
 11 12  1  0  0  0  0
 11 16  2  0  0  0  0
 12 13  2  0  0  0  0
 12 41  1  0  0  0  0
 13 14  1  0  0  0  0
 13 42  1  0  0  0  0
 14 15  2  0  0  0  0
 14 25  1  0  0  0  0
 15 16  1  0  0  0  0
 15 17  1  0  0  0  0
 16 43  1  0  0  0  0
 17 18  1  0  0  0  0
 17 44  1  0  0  0  0
 17 45  1  0  0  0  0
 18 19  1  0  0  0  0
 18 23  1  0  0  0  0
 19 20  1  0  0  0  0
 19 46  1  0  0  0  0
 19 47  1  0  0  0  0
 20 21  1  0  0  0  0
 20 48  1  0  0  0  0
 20 49  1  0  0  0  0
 21 22  1  0  0  0  0
 21 24  1  0  0  0  0
 22 23  1  0  0  0  0
 22 50  1  0  0  0  0
 22 51  1  0  0  0  0
 23 52  1  0  0  0  0
 23 53  1  0  0  0  0
 24 54  1  0  0  0  0
 24 55  1  0  0  0  0
 24 56  1  0  0  0  0
 25 57  1  0  0  0  0
 26 27  1  0  0  0  0
 26 32  2  0  0  0  0
 27 28  1  0  0  0  0
 27 29  2  0  0  0  0
 29 30  1  0  0  0  0
 29 58  1  0  0  0  0
 30 31  2  0  0  0  0
 30 33  1  0  0  0  0
 31 32  1  0  0  0  0
 31 59  1  0  0  0  0
 32 60  1  0  0  0  0
M  END
$$$$
Target_lig_1232
 OpenBabel04172516583D

 37 40  0  0  0  0  0  0  0  0999 V2000
    2.0144    2.0742    0.0680 C   0  0  0  0  0  0  0  0  0  0  0  0
    2.3948    0.6066    0.1414 C   0  0  0  0  0  0  0  0  0  0  0  0
    3.0392    0.3963    1.3998 O   0  0  0  0  0  0  0  0  0  0  0  0
    4.3823    0.6162    1.4205 C   0  0  0  0  0  0  0  0  0  0  0  0
    5.0834    0.7236    0.4224 O   0  0  0  0  0  0  0  0  0  0  0  0
    4.8448    0.9181    2.7680 C   0  0  0  0  0  0  0  0  0  0  0  0
    5.8086    1.8654    3.0746 C   0  0  0  0  0  0  0  0  0  0  0  0
    6.6336    2.7142    2.2707 C   0  0  0  0  0  0  0  0  0  0  0  0
    7.4620    3.5950    2.8609 C   0  0  0  0  0  0  0  0  0  0  0  0
    7.5361    3.7121    4.3045 C   0  0  0  0  0  0  0  0  0  0  0  0
    6.7586    2.9218    5.0644 C   0  0  0  0  0  0  0  0  0  0  0  0
    5.8968    1.9968    4.4624 N   0  0  0  0  0  0  0  0  0  0  0  0
    5.0134    1.0981    5.0343 C   0  0  0  0  0  0  0  0  0  0  0  0
    4.3863    0.4003    4.0125 C   0  0  0  0  0  0  0  0  0  0  0  0
    3.4408   -0.6664    4.2830 C   0  0  0  0  0  0  0  0  0  0  0  0
    2.9831   -1.4005    3.4170 O   0  0  0  0  0  0  0  0  0  0  0  0
    3.0840   -0.8841    5.7070 C   0  0  0  0  0  0  0  0  0  0  0  0
    2.1122   -1.8500    6.0068 C   0  0  0  0  0  0  0  0  0  0  0  0
    1.7793   -2.1166    7.3335 C   0  0  0  0  0  0  0  0  0  0  0  0
    2.4101   -1.4208    8.3620 C   0  0  0  0  0  0  0  0  0  0  0  0
    3.3708   -0.4462    8.0706 C   0  0  0  0  0  0  0  0  0  0  0  0
    3.7135   -0.1697    6.7395 C   0  0  0  0  0  0  0  0  0  0  0  0
    4.7464    0.8740    6.4367 C   0  0  0  0  0  0  0  0  0  0  0  0
    5.2856    1.4748    7.3583 O   0  0  0  0  0  0  0  0  0  0  0  0
    1.5175    2.3106   -0.8748 H   0  0  0  0  0  0  0  0  0  0  0  0
    2.8994    2.7116    0.1738 H   0  0  0  0  0  0  0  0  0  0  0  0
    1.3471    2.3319    0.8983 H   0  0  0  0  0  0  0  0  0  0  0  0
    3.0255    0.3071   -0.7023 H   0  0  0  0  0  0  0  0  0  0  0  0
    1.4964   -0.0181    0.1198 H   0  0  0  0  0  0  0  0  0  0  0  0
    6.5912    2.6402    1.1881 H   0  0  0  0  0  0  0  0  0  0  0  0
    8.0960    4.2395    2.2590 H   0  0  0  0  0  0  0  0  0  0  0  0
    8.2157    4.4389    4.7350 H   0  0  0  0  0  0  0  0  0  0  0  0
    6.7729    2.9741    6.1457 H   0  0  0  0  0  0  0  0  0  0  0  0
    1.6177   -2.4012    5.2071 H   0  0  0  0  0  0  0  0  0  0  0  0
    1.0303   -2.8744    7.5597 H   0  0  0  0  0  0  0  0  0  0  0  0
    2.1551   -1.6411    9.3969 H   0  0  0  0  0  0  0  0  0  0  0  0
    3.8531    0.0884    8.8875 H   0  0  0  0  0  0  0  0  0  0  0  0
  1  2  1  0  0  0  0
  1 25  1  0  0  0  0
  1 26  1  0  0  0  0
  1 27  1  0  0  0  0
  2  3  1  0  0  0  0
  2 28  1  0  0  0  0
  2 29  1  0  0  0  0
  3  4  1  0  0  0  0
  4  5  2  0  0  0  0
  4  6  1  0  0  0  0
  6  7  2  0  0  0  0
  6 14  1  0  0  0  0
  7  8  1  0  0  0  0
  7 12  1  0  0  0  0
  8  9  2  0  0  0  0
  8 30  1  0  0  0  0
  9 10  1  0  0  0  0
  9 31  1  0  0  0  0
 10 11  2  0  0  0  0
 10 32  1  0  0  0  0
 11 12  1  0  0  0  0
 11 33  1  0  0  0  0
 12 13  1  0  0  0  0
 13 14  2  0  0  0  0
 13 23  1  0  0  0  0
 14 15  1  0  0  0  0
 15 16  2  0  0  0  0
 15 17  1  0  0  0  0
 17 18  2  0  0  0  0
 17 22  1  0  0  0  0
 18 19  1  0  0  0  0
 18 34  1  0  0  0  0
 19 20  2  0  0  0  0
 19 35  1  0  0  0  0
 20 21  1  0  0  0  0
 20 36  1  0  0  0  0
 21 22  2  0  0  0  0
 21 37  1  0  0  0  0
 22 23  1  0  0  0  0
 23 24  2  0  0  0  0
M  END
$$$$
Target_lig_1233
 OpenBabel04172516583D

 45 46  0  0  0  0  0  0  0  0999 V2000
   -0.0578    1.7834   -3.3616 C   0  0  0  0  0  0  0  0  0  0  0  0
    0.8719    1.4733   -2.1849 N   0  3  0  0  0  0  0  0  0  0  0  0
    2.1064    0.6210   -2.6156 C   0  0  0  0  0  0  0  0  0  0  0  0
    1.7069   -0.7482   -3.2363 C   0  0  0  0  0  0  0  0  0  0  0  0
    2.8150   -1.6623   -3.5727 N   0  0  0  0  0  0  0  0  0  0  0  0
    2.4642   -2.9102   -4.3678 N   0  3  0  0  0  0  0  0  0  0  0  0
    3.0586   -2.6936   -5.7904 C   0  0  0  0  0  0  0  0  0  0  0  0
    0.9389   -3.1900   -4.5168 C   0  0  0  0  0  0  0  0  0  0  0  0
    0.4572   -4.4570   -3.8494 C   0  0  0  0  0  0  0  0  0  0  0  0
    1.2806   -5.6370   -4.3112 C   0  0  0  0  0  0  0  0  0  0  0  0
    2.7073   -5.4071   -3.9347 C   0  0  0  0  0  0  0  0  0  0  0  0
    3.2502   -4.1172   -3.8305 C   0  0  0  0  0  0  0  0  0  0  0  0
    4.6015   -3.9719   -3.4564 C   0  0  0  0  0  0  0  0  0  0  0  0
    5.4008   -5.1007   -3.2385 C   0  0  0  0  0  0  0  0  0  0  0  0
    4.8732   -6.3724   -3.4045 C   0  0  0  0  0  0  0  0  0  0  0  0
    3.5334   -6.5278   -3.7404 C   0  0  0  0  0  0  0  0  0  0  0  0
    1.3782    2.8220   -1.6373 C   0  0  0  0  0  0  0  0  0  0  0  0
    0.0704    0.8025   -1.0711 C   0  0  0  0  0  0  0  0  0  0  0  0
    0.5382    2.2282   -4.1634 H   0  0  0  0  0  0  0  0  0  0  0  0
   -0.8309    2.4797   -3.0204 H   0  0  0  0  0  0  0  0  0  0  0  0
   -0.5242    0.8525   -3.6944 H   0  0  0  0  0  0  0  0  0  0  0  0
    2.7196    0.4821   -1.7179 H   0  0  0  0  0  0  0  0  0  0  0  0
    2.6664    1.2213   -3.3418 H   0  0  0  0  0  0  0  0  0  0  0  0
    1.1549   -0.5218   -4.1521 H   0  0  0  0  0  0  0  0  0  0  0  0
    1.0648   -1.2688   -2.5218 H   0  0  0  0  0  0  0  0  0  0  0  0
    3.3286   -1.8954   -2.7114 H   0  0  0  0  0  0  0  0  0  0  0  0
    2.5301   -1.8529   -6.2531 H   0  0  0  0  0  0  0  0  0  0  0  0
    2.8961   -3.6107   -6.3693 H   0  0  0  0  0  0  0  0  0  0  0  0
    4.1294   -2.4771   -5.7083 H   0  0  0  0  0  0  0  0  0  0  0  0
    0.7268   -3.2361   -5.5899 H   0  0  0  0  0  0  0  0  0  0  0  0
    0.3391   -2.3608   -4.1436 H   0  0  0  0  0  0  0  0  0  0  0  0
   -0.5970   -4.6203   -4.1155 H   0  0  0  0  0  0  0  0  0  0  0  0
    0.5010   -4.3523   -2.7556 H   0  0  0  0  0  0  0  0  0  0  0  0
    1.2000   -5.7683   -5.4045 H   0  0  0  0  0  0  0  0  0  0  0  0
    0.8952   -6.5483   -3.8348 H   0  0  0  0  0  0  0  0  0  0  0  0
    5.0852   -3.0035   -3.3871 H   0  0  0  0  0  0  0  0  0  0  0  0
    6.4566   -4.9852   -2.9748 H   0  0  0  0  0  0  0  0  0  0  0  0
    5.5072   -7.2498   -3.2835 H   0  0  0  0  0  0  0  0  0  0  0  0
    3.1368   -7.5335   -3.8742 H   0  0  0  0  0  0  0  0  0  0  0  0
    1.9257    3.3314   -2.4322 H   0  0  0  0  0  0  0  0  0  0  0  0
    2.0258    2.6202   -0.7811 H   0  0  0  0  0  0  0  0  0  0  0  0
    0.5108    3.4164   -1.3283 H   0  0  0  0  0  0  0  0  0  0  0  0
   -0.3939   -0.1060   -1.4642 H   0  0  0  0  0  0  0  0  0  0  0  0
   -0.7084    1.4934   -0.7340 H   0  0  0  0  0  0  0  0  0  0  0  0
    0.7564    0.5643   -0.2505 H   0  0  0  0  0  0  0  0  0  0  0  0
  1  2  1  0  0  0  0
  1 19  1  0  0  0  0
  1 20  1  0  0  0  0
  1 21  1  0  0  0  0
  2  3  1  0  0  0  0
  2 17  1  0  0  0  0
  2 18  1  0  0  0  0
  3  4  1  0  0  0  0
  3 22  1  0  0  0  0
  3 23  1  0  0  0  0
  4  5  1  0  0  0  0
  4 24  1  0  0  0  0
  4 25  1  0  0  0  0
  5  6  1  0  0  0  0
  5 26  1  0  0  0  0
  6  7  1  0  0  0  0
  6  8  1  0  0  0  0
  6 12  1  0  0  0  0
  7 27  1  0  0  0  0
  7 28  1  0  0  0  0
  7 29  1  0  0  0  0
  8  9  1  0  0  0  0
  8 30  1  0  0  0  0
  8 31  1  0  0  0  0
  9 10  1  0  0  0  0
  9 32  1  0  0  0  0
  9 33  1  0  0  0  0
 10 11  1  0  0  0  0
 10 34  1  0  0  0  0
 10 35  1  0  0  0  0
 11 12  1  0  0  0  0
 11 16  2  0  0  0  0
 12 13  2  0  0  0  0
 13 14  1  0  0  0  0
 13 36  1  0  0  0  0
 14 15  2  0  0  0  0
 14 37  1  0  0  0  0
 15 16  1  0  0  0  0
 15 38  1  0  0  0  0
 16 39  1  0  0  0  0
 17 40  1  0  0  0  0
 17 41  1  0  0  0  0
 17 42  1  0  0  0  0
 18 43  1  0  0  0  0
 18 44  1  0  0  0  0
 18 45  1  0  0  0  0
M  CHG  2   2   1   6   1
M  END
$$$$
Target_lig_1234
 OpenBabel04172516583D

 46 49  0  0  0  0  0  0  0  0999 V2000
    1.1493   -0.2030    0.0352 C   0  0  0  0  0  0  0  0  0  0  0  0
    2.5677    0.1556   -0.0166 N   0  0  0  0  0  0  0  0  0  0  0  0
    3.3744   -0.5463    0.8865 C   0  0  0  0  0  0  0  0  0  0  0  0
    3.0103   -1.7742    1.3339 N   0  0  0  0  0  0  0  0  0  0  0  0
    3.7443   -2.3787    2.2925 C   0  0  0  0  0  0  0  0  0  0  0  0
    4.8395   -1.9208    2.9030 N   0  0  0  0  0  0  0  0  0  0  0  0
    5.1880   -0.7016    2.4711 C   0  0  0  0  0  0  0  0  0  0  0  0
    4.5130   -0.0018    1.4821 C   0  0  0  0  0  0  0  0  0  0  0  0
    5.2024    1.1914    1.3934 N   0  0  0  0  0  0  0  0  0  0  0  0
    4.9093    2.2548    0.4606 C   0  0  0  0  0  0  0  0  0  0  0  0
    5.7640    3.5126    0.5323 C   0  0  0  0  0  0  0  0  0  0  0  0
    5.3516    4.4807   -0.4667 N   0  0  0  0  0  0  0  0  0  0  0  0
    5.7952    4.5472   -1.7550 C   0  0  0  0  0  0  0  0  0  0  0  0
    5.2558    5.5597   -2.3962 N   0  0  0  0  0  0  0  0  0  0  0  0
    4.4163    6.1840   -1.4837 C   0  0  0  0  0  0  0  0  0  0  0  0
    4.4546    5.4925   -0.2785 C   0  0  0  0  0  0  0  0  0  0  0  0
    3.7738    5.7526    0.8464 N   0  0  0  0  0  0  0  0  0  0  0  0
    3.0065    6.8425    0.6892 C   0  0  0  0  0  0  0  0  0  0  0  0
    2.8817    7.6213   -0.4040 N   0  0  0  0  0  0  0  0  0  0  0  0
    3.5795    7.3349   -1.5506 C   0  0  0  0  0  0  0  0  0  0  0  0
    3.4028    8.1586   -2.6507 N   0  0  0  0  0  0  0  0  0  0  0  0
    4.1071    7.9791   -3.9075 C   0  0  0  0  0  0  0  0  0  0  0  0
    2.6289    9.3846   -2.5185 C   0  0  0  0  0  0  0  0  0  0  0  0
    6.2272    1.1512    2.2981 C   0  0  0  0  0  0  0  0  0  0  0  0
    6.2556    0.0125    2.9536 N   0  0  0  0  0  0  0  0  0  0  0  0
    3.1054    0.2821   -1.3705 C   0  0  0  0  0  0  0  0  0  0  0  0
    0.8334   -0.6061    1.0034 H   0  0  0  0  0  0  0  0  0  0  0  0
    0.8815   -0.9263   -0.7435 H   0  0  0  0  0  0  0  0  0  0  0  0
    0.5616    0.7064   -0.1317 H   0  0  0  0  0  0  0  0  0  0  0  0
    3.3951   -3.3549    2.6155 H   0  0  0  0  0  0  0  0  0  0  0  0
    3.8506    2.5111    0.5861 H   0  0  0  0  0  0  0  0  0  0  0  0
    5.0621    1.8175   -0.5278 H   0  0  0  0  0  0  0  0  0  0  0  0
    6.8190    3.2830    0.3414 H   0  0  0  0  0  0  0  0  0  0  0  0
    5.7015    3.9899    1.5183 H   0  0  0  0  0  0  0  0  0  0  0  0
    6.5063    3.8482   -2.1774 H   0  0  0  0  0  0  0  0  0  0  0  0
    2.4135    7.1386    1.5496 H   0  0  0  0  0  0  0  0  0  0  0  0
    4.7008    7.0707   -3.9896 H   0  0  0  0  0  0  0  0  0  0  0  0
    4.7797    8.8248   -4.0878 H   0  0  0  0  0  0  0  0  0  0  0  0
    3.3813    7.9489   -4.7283 H   0  0  0  0  0  0  0  0  0  0  0  0
    2.1434    9.5224   -1.5478 H   0  0  0  0  0  0  0  0  0  0  0  0
    1.8398    9.4036   -3.2781 H   0  0  0  0  0  0  0  0  0  0  0  0
    3.2741   10.2553   -2.6833 H   0  0  0  0  0  0  0  0  0  0  0  0
    6.9319    1.9580    2.4531 H   0  0  0  0  0  0  0  0  0  0  0  0
    2.3914   -0.0506   -2.1333 H   0  0  0  0  0  0  0  0  0  0  0  0
    4.0363   -0.2752   -1.5229 H   0  0  0  0  0  0  0  0  0  0  0  0
    3.2890    1.3402   -1.5834 H   0  0  0  0  0  0  0  0  0  0  0  0
  1  2  1  0  0  0  0
  1 27  1  0  0  0  0
  1 28  1  0  0  0  0
  1 29  1  0  0  0  0
  2  3  1  0  0  0  0
  2 26  1  0  0  0  0
  3  4  1  0  0  0  0
  3  8  2  0  0  0  0
  4  5  2  0  0  0  0
  5  6  1  0  0  0  0
  5 30  1  0  0  0  0
  6  7  2  0  0  0  0
  7  8  1  0  0  0  0
  7 25  1  0  0  0  0
  8  9  1  0  0  0  0
  9 10  1  0  0  0  0
  9 24  1  0  0  0  0
 10 11  1  0  0  0  0
 10 31  1  0  0  0  0
 10 32  1  0  0  0  0
 11 12  1  0  0  0  0
 11 33  1  0  0  0  0
 11 34  1  0  0  0  0
 12 13  1  0  0  0  0
 12 16  1  0  0  0  0
 13 14  2  0  0  0  0
 13 35  1  0  0  0  0
 14 15  1  0  0  0  0
 15 16  1  0  0  0  0
 15 20  2  0  0  0  0
 16 17  2  0  0  0  0
 17 18  1  0  0  0  0
 18 19  2  0  0  0  0
 18 36  1  0  0  0  0
 19 20  1  0  0  0  0
 20 21  1  0  0  0  0
 21 22  1  0  0  0  0
 21 23  1  0  0  0  0
 22 37  1  0  0  0  0
 22 38  1  0  0  0  0
 22 39  1  0  0  0  0
 23 40  1  0  0  0  0
 23 41  1  0  0  0  0
 23 42  1  0  0  0  0
 24 25  2  0  0  0  0
 24 43  1  0  0  0  0
 26 44  1  0  0  0  0
 26 45  1  0  0  0  0
 26 46  1  0  0  0  0
M  END
$$$$
Target_lig_5
 OpenBabel04172516583D

 87 90  0  0  1  0  0  0  0  0999 V2000
    0.3322    1.6848   -0.2151 C   0  0  0  0  0  0  0  0  0  0  0  0
    1.3103    0.5926    0.2338 C   0  0  3  0  0  0  0  0  0  0  0  0
    0.7363   -0.7826   -0.1708 C   0  0  3  0  0  0  0  0  0  0  0  0
   -0.6493   -1.0685    0.4539 C   0  0  3  0  0  0  0  0  0  0  0  0
   -1.6270    0.0168   -0.1342 C   0  0  3  0  0  0  0  0  0  0  0  0
   -1.1352    1.4622    0.2409 C   0  0  3  0  0  0  0  0  0  0  0  0
   -1.9363    2.5265   -0.4025 N   0  0  0  0  0  0  0  0  0  0  0  0
   -3.0397   -0.2327    0.1405 O   0  0  0  0  0  0  0  0  0  0  0  0
   -3.5331   -1.5091   -0.3227 C   0  0  3  0  0  0  0  0  0  0  0  0
   -3.4309   -1.7149   -1.8783 C   0  0  3  0  0  0  0  0  0  0  0  0
   -4.7077   -1.2363   -2.5671 C   0  0  3  0  0  0  0  0  0  0  0  0
   -5.9399   -1.9090   -1.9677 C   0  0  3  0  0  0  0  0  0  0  0  0
   -6.0004   -1.5117   -0.4889 C   0  0  3  0  0  0  0  0  0  0  0  0
   -4.8080   -1.8932    0.2290 O   0  0  0  0  0  0  0  0  0  0  0  0
   -7.2046   -2.2122    0.1703 C   0  0  0  0  0  0  0  0  0  0  0  0
   -7.3099   -1.8251    1.5300 O   0  0  0  0  0  0  0  0  0  0  0  0
   -5.8822   -3.3418   -2.0925 O   0  0  0  0  0  0  0  0  0  0  0  0
   -4.6291   -1.5125   -3.9804 O   0  0  0  0  0  0  0  0  0  0  0  0
   -3.1280   -3.1346   -2.2616 N   0  0  0  0  0  0  0  0  0  0  0  0
   -0.7018   -1.1176    1.9021 O   0  0  0  0  0  0  0  0  0  0  0  0
    0.0443   -2.1857    2.5228 C   0  0  3  0  0  0  0  0  0  0  0  0
   -0.5006   -3.5962    2.1875 C   0  0  3  0  0  0  0  0  0  0  0  0
   -0.8179   -4.2443    3.5415 C   0  0  3  0  0  0  0  0  0  0  0  0
    0.1085   -3.4711    4.4765 C   0  0  3  0  0  0  0  0  0  0  0  0
    0.0422   -2.1089    3.9678 O   0  0  0  0  0  0  0  0  0  0  0  0
    1.5712   -3.9544    4.6264 C   0  0  0  0  0  0  0  0  0  0  0  0
    2.3862   -3.8507    3.4675 O   0  0  0  0  0  0  0  0  0  0  0  0
   -0.7733   -5.6763    3.4501 O   0  0  0  0  0  0  0  0  0  0  0  0
   -0.9541   -6.4105    4.6732 C   0  0  3  0  0  0  0  0  0  0  0  0
   -0.8651   -7.9484    4.4058 C   0  0  3  0  0  0  0  0  0  0  0  0
   -2.1964   -8.4675    3.8184 C   0  0  3  0  0  0  0  0  0  0  0  0
   -3.4213   -8.0496    4.6407 C   0  0  3  0  0  0  0  0  0  0  0  0
   -3.3767   -6.5260    4.8776 C   0  0  3  0  0  0  0  0  0  0  0  0
   -2.1181   -6.0925    5.4366 O   0  0  0  0  0  0  0  0  0  0  0  0
   -4.5022   -6.1148    5.8562 C   0  0  0  0  0  0  0  0  0  0  0  0
   -4.5238   -4.6641    6.0729 N   0  0  0  0  0  0  0  0  0  0  0  0
   -3.5088   -8.7860    5.8692 O   0  0  0  0  0  0  0  0  0  0  0  0
   -2.1498   -9.8939    3.6848 O   0  0  0  0  0  0  0  0  0  0  0  0
   -0.4887   -8.7249    5.6226 N   0  0  0  0  0  0  0  0  0  0  0  0
    0.5200   -4.3368    1.4787 O   0  0  0  0  0  0  0  0  0  0  0  0
    1.6778   -1.8283    0.0597 O   0  0  0  0  0  0  0  0  0  0  0  0
    1.6116    0.7593    1.6576 N   0  0  0  0  0  0  0  0  0  0  0  0
    0.3671    1.7165   -1.3157 H   0  0  0  0  0  0  0  0  0  0  0  0
    0.6957    2.6687    0.1136 H   0  0  0  0  0  0  0  0  0  0  0  0
    2.2602    0.7325   -0.2966 H   0  0  0  0  0  0  0  0  0  0  0  0
    0.6055   -0.7648   -1.2612 H   0  0  0  0  0  0  0  0  0  0  0  0
   -0.9502   -2.0521    0.0920 H   0  0  0  0  0  0  0  0  0  0  0  0
   -1.5244   -0.0106   -1.2235 H   0  0  0  0  0  0  0  0  0  0  0  0
   -1.2195    1.6027    1.3243 H   0  0  0  0  0  0  0  0  0  0  0  0
   -1.7817    2.5354   -1.4096 H   0  0  0  0  0  0  0  0  0  0  0  0
   -1.5940    3.4321   -0.0744 H   0  0  0  0  0  0  0  0  0  0  0  0
   -2.8867   -2.2514    0.1454 H   0  0  0  0  0  0  0  0  0  0  0  0
   -2.6041   -1.1512   -2.3131 H   0  0  0  0  0  0  0  0  0  0  0  0
   -4.7983   -0.1492   -2.4599 H   0  0  0  0  0  0  0  0  0  0  0  0
   -6.8426   -1.5929   -2.5042 H   0  0  0  0  0  0  0  0  0  0  0  0
   -6.1111   -0.4288   -0.3805 H   0  0  0  0  0  0  0  0  0  0  0  0
   -7.1071   -3.2998    0.1473 H   0  0  0  0  0  0  0  0  0  0  0  0
   -8.1369   -1.9380   -0.3315 H   0  0  0  0  0  0  0  0  0  0  0  0
   -6.4330   -2.0037    1.9219 H   0  0  0  0  0  0  0  0  0  0  0  0
   -5.1694   -3.5445   -2.7296 H   0  0  0  0  0  0  0  0  0  0  0  0
   -4.0008   -2.2473   -4.0767 H   0  0  0  0  0  0  0  0  0  0  0  0
   -3.5256   -3.7457   -1.5304 H   0  0  0  0  0  0  0  0  0  0  0  0
   -2.1223   -3.2933   -2.2021 H   0  0  0  0  0  0  0  0  0  0  0  0
    1.0893   -2.0695    2.2451 H   0  0  0  0  0  0  0  0  0  0  0  0
   -1.3789   -3.5867    1.5489 H   0  0  0  0  0  0  0  0  0  0  0  0
   -1.8471   -3.9574    3.7878 H   0  0  0  0  0  0  0  0  0  0  0  0
   -0.3233   -3.4666    5.4841 H   0  0  0  0  0  0  0  0  0  0  0  0
    1.6160   -4.9927    4.9673 H   0  0  0  0  0  0  0  0  0  0  0  0
    2.0629   -3.3492    5.3964 H   0  0  0  0  0  0  0  0  0  0  0  0
    1.9462   -4.2757    2.7087 H   0  0  0  0  0  0  0  0  0  0  0  0
   -0.1076   -6.1585    5.3155 H   0  0  0  0  0  0  0  0  0  0  0  0
   -0.0833   -8.1486    3.6621 H   0  0  0  0  0  0  0  0  0  0  0  0
   -2.3104   -8.0659    2.8047 H   0  0  0  0  0  0  0  0  0  0  0  0
   -4.3312   -8.3153    4.0904 H   0  0  0  0  0  0  0  0  0  0  0  0
   -3.5186   -6.0084    3.9219 H   0  0  0  0  0  0  0  0  0  0  0  0
   -4.3551   -6.5897    6.8322 H   0  0  0  0  0  0  0  0  0  0  0  0
   -5.4755   -6.4333    5.4681 H   0  0  0  0  0  0  0  0  0  0  0  0
   -3.6538   -4.4017    6.5392 H   0  0  0  0  0  0  0  0  0  0  0  0
   -5.2720   -4.4386    6.7292 H   0  0  0  0  0  0  0  0  0  0  0  0
   -2.7952   -8.4938    6.4569 H   0  0  0  0  0  0  0  0  0  0  0  0
   -1.9369  -10.2210    4.5833 H   0  0  0  0  0  0  0  0  0  0  0  0
   -0.8502   -8.2633    6.4569 H   0  0  0  0  0  0  0  0  0  0  0  0
    0.5274   -8.6797    5.7322 H   0  0  0  0  0  0  0  0  0  0  0  0
    0.2463   -5.2839    1.5736 H   0  0  0  0  0  0  0  0  0  0  0  0
    1.2849   -2.6695   -0.2626 H   0  0  0  0  0  0  0  0  0  0  0  0
    0.8357    0.4088    2.2280 H   0  0  0  0  0  0  0  0  0  0  0  0
    2.4011    0.1566    1.8989 H   0  0  0  0  0  0  0  0  0  0  0  0
  1  2  1  0  0  0  0
  1  6  1  0  0  0  0
  1 43  1  0  0  0  0
  1 44  1  0  0  0  0
  2  3  1  0  0  0  0
  2 42  1  0  0  0  0
  2 45  1  0  0  0  0
  3  4  1  0  0  0  0
  3 41  1  0  0  0  0
  3 46  1  0  0  0  0
  4  5  1  0  0  0  0
  4 20  1  0  0  0  0
  4 47  1  0  0  0  0
  5  6  1  0  0  0  0
  5  8  1  0  0  0  0
  5 48  1  0  0  0  0
  6  7  1  0  0  0  0
  6 49  1  0  0  0  0
  7 50  1  0  0  0  0
  7 51  1  0  0  0  0
  8  9  1  0  0  0  0
  9 10  1  0  0  0  0
  9 14  1  0  0  0  0
  9 52  1  0  0  0  0
 10 11  1  0  0  0  0
 10 19  1  0  0  0  0
 10 53  1  0  0  0  0
 11 12  1  0  0  0  0
 11 18  1  0  0  0  0
 11 54  1  0  0  0  0
 12 13  1  0  0  0  0
 12 17  1  0  0  0  0
 12 55  1  0  0  0  0
 13 14  1  0  0  0  0
 13 15  1  0  0  0  0
 13 56  1  0  0  0  0
 15 16  1  0  0  0  0
 15 57  1  0  0  0  0
 15 58  1  0  0  0  0
 16 59  1  0  0  0  0
 17 60  1  0  0  0  0
 18 61  1  0  0  0  0
 19 62  1  0  0  0  0
 19 63  1  0  0  0  0
 20 21  1  0  0  0  0
 21 22  1  0  0  0  0
 21 25  1  0  0  0  0
 21 64  1  0  0  0  0
 22 23  1  0  0  0  0
 22 40  1  0  0  0  0
 22 65  1  0  0  0  0
 23 24  1  0  0  0  0
 23 28  1  0  0  0  0
 23 66  1  0  0  0  0
 24 25  1  0  0  0  0
 24 26  1  0  0  0  0
 24 67  1  0  0  0  0
 26 27  1  0  0  0  0
 26 68  1  0  0  0  0
 26 69  1  0  0  0  0
 27 70  1  0  0  0  0
 28 29  1  0  0  0  0
 29 30  1  0  0  0  0
 29 34  1  0  0  0  0
 29 71  1  0  0  0  0
 30 31  1  0  0  0  0
 30 39  1  0  0  0  0
 30 72  1  0  0  0  0
 31 32  1  0  0  0  0
 31 38  1  0  0  0  0
 31 73  1  0  0  0  0
 32 33  1  0  0  0  0
 32 37  1  0  0  0  0
 32 74  1  0  0  0  0
 33 34  1  0  0  0  0
 33 35  1  0  0  0  0
 33 75  1  0  0  0  0
 35 36  1  0  0  0  0
 35 76  1  0  0  0  0
 35 77  1  0  0  0  0
 36 78  1  0  0  0  0
 36 79  1  0  0  0  0
 37 80  1  0  0  0  0
 38 81  1  0  0  0  0
 39 82  1  0  0  0  0
 39 83  1  0  0  0  0
 40 84  1  0  0  0  0
 41 85  1  0  0  0  0
 42 86  1  0  0  0  0
 42 87  1  0  0  0  0
M  END
$$$$
Target_lig_1287
 OpenBabel04172516583D

 70 72  0  0  1  0  0  0  0  0999 V2000
    0.4101    1.6622    0.3770 C   0  0  0  0  0  0  0  0  0  0  0  0
    1.3951    0.6533    0.9870 C   0  0  3  0  0  0  0  0  0  0  0  0
    1.0102   -0.7558    0.4930 C   0  0  3  0  0  0  0  0  0  0  0  0
   -0.4249   -1.1180    0.9392 C   0  0  3  0  0  0  0  0  0  0  0  0
   -1.4200   -0.1902    0.2192 C   0  0  3  0  0  0  0  0  0  0  0  0
   -1.0826    1.3066    0.5523 C   0  0  3  0  0  0  0  0  0  0  0  0
   -1.8649    2.2400   -0.2846 N   0  0  0  0  0  0  0  0  0  0  0  0
   -2.7572   -0.5183    0.6851 O   0  0  0  0  0  0  0  0  0  0  0  0
   -3.3526   -1.6227   -0.0128 C   0  0  3  0  0  0  0  0  0  0  0  0
   -4.8860   -1.6652    0.2207 C   0  0  3  0  0  0  0  0  0  0  0  0
   -5.1816   -2.0945    1.6761 C   0  0  3  0  0  0  0  0  0  0  0  0
   -4.5234   -3.4700    1.9508 C   0  0  3  0  0  0  0  0  0  0  0  0
   -3.0193   -3.3569    1.6498 C   0  0  3  0  0  0  0  0  0  0  0  0
   -2.7694   -2.8837    0.3081 O   0  0  0  0  0  0  0  0  0  0  0  0
   -2.2789   -4.6919    1.8458 C   0  0  0  0  0  0  0  0  0  0  0  0
   -2.7332   -5.7124    0.9577 O   0  0  0  0  0  0  0  0  0  0  0  0
   -5.1098   -4.5220    1.1621 O   0  0  0  0  0  0  0  0  0  0  0  0
   -6.6309   -2.1502    1.9526 N   0  0  0  0  0  0  0  0  0  0  0  0
   -5.5291   -2.6161   -0.6627 O   0  0  0  0  0  0  0  0  0  0  0  0
   -0.6432   -0.9907    2.3594 O   0  0  0  0  0  0  0  0  0  0  0  0
    1.9475   -1.7733    0.8825 O   0  0  0  0  0  0  0  0  0  0  0  0
    3.0367   -1.8962   -0.0367 C   0  0  3  0  0  0  0  0  0  0  0  0
    3.7376   -3.2711    0.1253 C   0  0  3  0  0  0  0  0  0  0  0  0
    4.5361   -3.2863    1.4427 C   0  0  3  0  0  0  0  0  0  0  0  0
    5.4714   -2.0726    1.5594 C   0  0  3  0  0  0  0  0  0  0  0  0
    4.6594   -0.7842    1.3292 C   0  0  3  0  0  0  0  0  0  0  0  0
    3.9895   -0.8313    0.0466 O   0  0  0  0  0  0  0  0  0  0  0  0
    5.5837    0.4528    1.3795 C   0  0  0  0  0  0  0  0  0  0  0  0
    4.8554    1.7200    1.2177 N   0  0  0  0  0  0  0  0  0  0  0  0
    6.5599   -2.1554    0.6188 O   0  0  0  0  0  0  0  0  0  0  0  0
    5.2852   -4.5086    1.5330 O   0  0  0  0  0  0  0  0  0  0  0  0
    4.6449   -3.5829   -1.0299 N   0  0  0  0  0  0  0  0  0  0  0  0
    1.4858    0.7549    2.4429 N   0  0  0  0  0  0  0  0  0  0  0  0
    0.6425    1.7241   -0.6964 H   0  0  0  0  0  0  0  0  0  0  0  0
    0.6116    2.6641    0.7795 H   0  0  0  0  0  0  0  0  0  0  0  0
    2.3812    0.9046    0.6036 H   0  0  0  0  0  0  0  0  0  0  0  0
    0.9821   -0.7383   -0.6044 H   0  0  0  0  0  0  0  0  0  0  0  0
   -0.5947   -2.1681    0.7043 H   0  0  0  0  0  0  0  0  0  0  0  0
   -1.3579   -0.3314   -0.8690 H   0  0  0  0  0  0  0  0  0  0  0  0
   -1.3742    1.5047    1.5906 H   0  0  0  0  0  0  0  0  0  0  0  0
   -1.5465    2.1966   -1.2534 H   0  0  0  0  0  0  0  0  0  0  0  0
   -1.6617    3.1974    0.0138 H   0  0  0  0  0  0  0  0  0  0  0  0
   -3.1923   -1.4793   -1.0887 H   0  0  0  0  0  0  0  0  0  0  0  0
   -5.3233   -0.6812    0.0202 H   0  0  0  0  0  0  0  0  0  0  0  0
   -4.7459   -1.3594    2.3636 H   0  0  0  0  0  0  0  0  0  0  0  0
   -4.6698   -3.7526    3.0008 H   0  0  0  0  0  0  0  0  0  0  0  0
   -2.5792   -2.6387    2.3450 H   0  0  0  0  0  0  0  0  0  0  0  0
   -2.4023   -5.0562    2.8713 H   0  0  0  0  0  0  0  0  0  0  0  0
   -1.2093   -4.5596    1.6569 H   0  0  0  0  0  0  0  0  0  0  0  0
   -3.7140   -5.6672    0.9714 H   0  0  0  0  0  0  0  0  0  0  0  0
   -5.4905   -4.0932    0.3658 H   0  0  0  0  0  0  0  0  0  0  0  0
   -7.0787   -2.6824    1.2017 H   0  0  0  0  0  0  0  0  0  0  0  0
   -7.0269   -1.2129    1.8939 H   0  0  0  0  0  0  0  0  0  0  0  0
   -4.9861   -2.6991   -1.4692 H   0  0  0  0  0  0  0  0  0  0  0  0
   -1.6058   -0.8217    2.4700 H   0  0  0  0  0  0  0  0  0  0  0  0
    2.6299   -1.8791   -1.0570 H   0  0  0  0  0  0  0  0  0  0  0  0
    2.9891   -4.0731    0.1724 H   0  0  0  0  0  0  0  0  0  0  0  0
    3.8373   -3.2807    2.2873 H   0  0  0  0  0  0  0  0  0  0  0  0
    5.9366   -2.0612    2.5523 H   0  0  0  0  0  0  0  0  0  0  0  0
    3.9060   -0.6879    2.1181 H   0  0  0  0  0  0  0  0  0  0  0  0
    6.3277    0.4018    0.5784 H   0  0  0  0  0  0  0  0  0  0  0  0
    6.1119    0.4788    2.3372 H   0  0  0  0  0  0  0  0  0  0  0  0
    4.4293    1.7109    0.2899 H   0  0  0  0  0  0  0  0  0  0  0  0
    5.5194    2.4908    1.2301 H   0  0  0  0  0  0  0  0  0  0  0  0
    6.2446   -2.6868   -0.1371 H   0  0  0  0  0  0  0  0  0  0  0  0
    5.6670   -4.6436    0.6433 H   0  0  0  0  0  0  0  0  0  0  0  0
    4.8216   -2.7068   -1.5361 H   0  0  0  0  0  0  0  0  0  0  0  0
    4.1015   -4.1351   -1.7016 H   0  0  0  0  0  0  0  0  0  0  0  0
    0.6669    0.3273    2.8853 H   0  0  0  0  0  0  0  0  0  0  0  0
    1.5844    1.7144    2.7592 H   0  0  0  0  0  0  0  0  0  0  0  0
  1  2  1  0  0  0  0
  1  6  1  0  0  0  0
  1 34  1  0  0  0  0
  1 35  1  0  0  0  0
  2  3  1  0  0  0  0
  2 33  1  0  0  0  0
  2 36  1  0  0  0  0
  3  4  1  0  0  0  0
  3 21  1  0  0  0  0
  3 37  1  0  0  0  0
  4  5  1  0  0  0  0
  4 20  1  0  0  0  0
  4 38  1  0  0  0  0
  5  6  1  0  0  0  0
  5  8  1  0  0  0  0
  5 39  1  0  0  0  0
  6  7  1  0  0  0  0
  6 40  1  0  0  0  0
  7 41  1  0  0  0  0
  7 42  1  0  0  0  0
  8  9  1  0  0  0  0
  9 10  1  0  0  0  0
  9 14  1  0  0  0  0
  9 43  1  0  0  0  0
 10 11  1  0  0  0  0
 10 19  1  0  0  0  0
 10 44  1  0  0  0  0
 11 12  1  0  0  0  0
 11 18  1  0  0  0  0
 11 45  1  0  0  0  0
 12 13  1  0  0  0  0
 12 17  1  0  0  0  0
 12 46  1  0  0  0  0
 13 14  1  0  0  0  0
 13 15  1  0  0  0  0
 13 47  1  0  0  0  0
 15 16  1  0  0  0  0
 15 48  1  0  0  0  0
 15 49  1  0  0  0  0
 16 50  1  0  0  0  0
 17 51  1  0  0  0  0
 18 52  1  0  0  0  0
 18 53  1  0  0  0  0
 19 54  1  0  0  0  0
 20 55  1  0  0  0  0
 21 22  1  0  0  0  0
 22 23  1  0  0  0  0
 22 27  1  0  0  0  0
 22 56  1  0  0  0  0
 23 24  1  0  0  0  0
 23 32  1  0  0  0  0
 23 57  1  0  0  0  0
 24 25  1  0  0  0  0
 24 31  1  0  0  0  0
 24 58  1  0  0  0  0
 25 26  1  0  0  0  0
 25 30  1  0  0  0  0
 25 59  1  0  0  0  0
 26 27  1  0  0  0  0
 26 28  1  0  0  0  0
 26 60  1  0  0  0  0
 28 29  1  0  0  0  0
 28 61  1  0  0  0  0
 28 62  1  0  0  0  0
 29 63  1  0  0  0  0
 29 64  1  0  0  0  0
 30 65  1  0  0  0  0
 31 66  1  0  0  0  0
 32 67  1  0  0  0  0
 32 68  1  0  0  0  0
 33 69  1  0  0  0  0
 33 70  1  0  0  0  0
M  END
$$$$
