Target_lig_165
 OpenBabel05122505463D

 15 16  0  0  0  0  0  0  0  0999 V2000
   -2.3069   -0.1095   -0.0051 C   0  0  0  0  0  0  0  0  0  0  0  0
   -1.5140   -1.1570   -0.0526 N   0  0  0  0  0  0  0  0  0  0  0  0
   -0.2446   -0.6440   -0.0265 C   0  0  0  0  0  0  0  0  0  0  0  0
    0.8889   -1.3628   -0.0490 N   0  0  0  0  0  0  0  0  0  0  0  0
    1.9835   -0.5905   -0.0094 C   0  0  0  0  0  0  0  0  0  0  0  0
    2.0541    0.7572    0.0470 N   0  0  0  0  0  0  0  0  0  0  0  0
    0.9062    1.4560    0.0773 C   0  0  0  0  0  0  0  0  0  0  0  0
   -0.2681    0.7405    0.0298 C   0  0  0  0  0  0  0  0  0  0  0  0
   -1.5972    1.0571    0.0414 N   0  0  0  0  0  0  0  0  0  0  0  0
    0.9756    2.8350    0.1612 N   0  0  0  0  0  0  0  0  0  0  0  0
   -3.3890   -0.1354   -0.0021 H   0  0  0  0  0  0  0  0  0  0  0  0
    2.9341   -1.1124   -0.0238 H   0  0  0  0  0  0  0  0  0  0  0  0
   -1.9871    1.9883    0.0905 H   0  0  0  0  0  0  0  0  0  0  0  0
    1.9120    3.1656   -0.0560 H   0  0  0  0  0  0  0  0  0  0  0  0
    0.2156    3.3675   -0.2315 H   0  0  0  0  0  0  0  0  0  0  0  0
  1  2  2  0  0  0  0
  1  9  1  0  0  0  0
  1 11  1  0  0  0  0
  2  3  1  0  0  0  0
  3  4  2  0  0  0  0
  3  8  1  0  0  0  0
  4  5  1  0  0  0  0
  5  6  2  0  0  0  0
  5 12  1  0  0  0  0
  6  7  1  0  0  0  0
  7  8  2  0  0  0  0
  7 10  1  0  0  0  0
  8  9  1  0  0  0  0
  9 13  1  0  0  0  0
 10 14  1  0  0  0  0
 10 15  1  0  0  0  0
M  END
$$$$
Target_lig_166
 OpenBabel05122505463D

 15 16  0  0  0  0  0  0  0  0999 V2000
    0.9862    1.3931   -0.0117 C   0  0  0  0  0  0  0  0  0  0  0  0
   -0.2076    0.7151   -0.0113 C   0  0  0  0  0  0  0  0  0  0  0  0
   -0.2093   -0.6680   -0.0013 C   0  0  0  0  0  0  0  0  0  0  0  0
    0.9120   -1.4079    0.0266 N   0  0  0  0  0  0  0  0  0  0  0  0
    2.0318   -0.6832    0.0702 C   0  0  0  0  0  0  0  0  0  0  0  0
    2.1186    0.6606    0.0229 N   0  0  0  0  0  0  0  0  0  0  0  0
    3.2237   -1.3667    0.1906 N   0  0  0  0  0  0  0  0  0  0  0  0
   -1.4899   -1.1491   -0.0130 N   0  0  0  0  0  0  0  0  0  0  0  0
   -2.2617   -0.0847   -0.0113 C   0  0  0  0  0  0  0  0  0  0  0  0
   -1.5259    1.0699   -0.0145 N   0  0  0  0  0  0  0  0  0  0  0  0
    1.0836    2.4706   -0.0228 H   0  0  0  0  0  0  0  0  0  0  0  0
    3.1411   -2.3239   -0.1202 H   0  0  0  0  0  0  0  0  0  0  0  0
    4.0067   -0.8151   -0.1265 H   0  0  0  0  0  0  0  0  0  0  0  0
   -3.3439   -0.0859   -0.0103 H   0  0  0  0  0  0  0  0  0  0  0  0
   -1.8998    2.0101   -0.0107 H   0  0  0  0  0  0  0  0  0  0  0  0
  1  2  2  0  0  0  0
  1  6  1  0  0  0  0
  1 11  1  0  0  0  0
  2  3  1  0  0  0  0
  2 10  1  0  0  0  0
  3  4  2  0  0  0  0
  3  8  1  0  0  0  0
  4  5  1  0  0  0  0
  5  6  2  0  0  0  0
  5  7  1  0  0  0  0
  7 12  1  0  0  0  0
  7 13  1  0  0  0  0
  8  9  2  0  0  0  0
  9 10  1  0  0  0  0
  9 14  1  0  0  0  0
 10 15  1  0  0  0  0
M  END
$$$$
Target_lig_167
 OpenBabel05122505463D

 16 16  0  0  0  0  0  0  0  0999 V2000
   -0.7016    1.2315    0.0087 C   0  0  0  0  0  0  0  0  0  0  0  0
   -1.3489    0.0201    0.0502 C   0  0  0  0  0  0  0  0  0  0  0  0
   -0.6997   -1.1454   -0.0055 N   0  0  0  0  0  0  0  0  0  0  0  0
    0.6270   -1.0842   -0.1383 C   0  0  0  0  0  0  0  0  0  0  0  0
    1.3475    0.0394   -0.1690 N   0  0  0  0  0  0  0  0  0  0  0  0
    0.6665    1.1882   -0.0955 C   0  0  0  0  0  0  0  0  0  0  0  0
    1.4042    2.3687   -0.1947 N   0  0  0  0  0  0  0  0  0  0  0  0
    1.3123   -2.2821   -0.2124 N   0  0  0  0  0  0  0  0  0  0  0  0
   -2.7345   -0.0322    0.2099 N   0  0  0  0  0  0  0  0  0  0  0  0
   -1.2405    2.1680    0.0564 H   0  0  0  0  0  0  0  0  0  0  0  0
    2.3904    2.1212   -0.1954 H   0  0  0  0  0  0  0  0  0  0  0  0
    1.1730    3.0330    0.5337 H   0  0  0  0  0  0  0  0  0  0  0  0
    0.7611   -3.0169    0.2066 H   0  0  0  0  0  0  0  0  0  0  0  0
    2.2572   -2.1576    0.1204 H   0  0  0  0  0  0  0  0  0  0  0  0
   -3.2172    0.5435   -0.4705 H   0  0  0  0  0  0  0  0  0  0  0  0
   -3.0131   -1.0082    0.1471 H   0  0  0  0  0  0  0  0  0  0  0  0
  1  2  2  0  0  0  0
  1  6  1  0  0  0  0
  1 10  1  0  0  0  0
  2  3  1  0  0  0  0
  2  9  1  0  0  0  0
  3  4  2  0  0  0  0
  4  5  1  0  0  0  0
  4  8  1  0  0  0  0
  5  6  2  0  0  0  0
  6  7  1  0  0  0  0
  7 11  1  0  0  0  0
  7 12  1  0  0  0  0
  8 13  1  0  0  0  0
  8 14  1  0  0  0  0
  9 15  1  0  0  0  0
  9 16  1  0  0  0  0
M  END
$$$$
Target_lig_168
 OpenBabel05122505463D

 17 18  0  0  0  0  0  0  0  0999 V2000
   -2.2558   -0.1243   -0.0336 C   0  0  0  0  0  0  0  0  0  0  0  0
   -1.4595   -1.1693   -0.0736 N   0  0  0  0  0  0  0  0  0  0  0  0
   -0.1921   -0.6525   -0.0005 C   0  0  0  0  0  0  0  0  0  0  0  0
    0.9436   -1.3662    0.0209 N   0  0  0  0  0  0  0  0  0  0  0  0
    2.0383   -0.6138    0.1222 C   0  0  0  0  0  0  0  0  0  0  0  0
    2.0935    0.7313    0.1427 N   0  0  0  0  0  0  0  0  0  0  0  0
    0.9515    1.4386    0.1210 C   0  0  0  0  0  0  0  0  0  0  0  0
   -0.2231    0.7263    0.0535 C   0  0  0  0  0  0  0  0  0  0  0  0
   -1.5513    1.0460    0.0443 N   0  0  0  0  0  0  0  0  0  0  0  0
    1.0212    2.8202    0.1648 N   0  0  0  0  0  0  0  0  0  0  0  0
    3.2485   -1.2807    0.1767 N   0  0  0  0  0  0  0  0  0  0  0  0
   -3.3377   -0.1515   -0.0509 H   0  0  0  0  0  0  0  0  0  0  0  0
   -1.9418    1.9742    0.1096 H   0  0  0  0  0  0  0  0  0  0  0  0
    1.9709    3.1312   -0.0163 H   0  0  0  0  0  0  0  0  0  0  0  0
    0.2979    3.3257   -0.3234 H   0  0  0  0  0  0  0  0  0  0  0  0
    3.1510   -2.2045   -0.2213 H   0  0  0  0  0  0  0  0  0  0  0  0
    3.9900   -0.6907   -0.1709 H   0  0  0  0  0  0  0  0  0  0  0  0
  1  2  2  0  0  0  0
  1  9  1  0  0  0  0
  1 12  1  0  0  0  0
  2  3  1  0  0  0  0
  3  4  2  0  0  0  0
  3  8  1  0  0  0  0
  4  5  1  0  0  0  0
  5  6  2  0  0  0  0
  5 11  1  0  0  0  0
  6  7  1  0  0  0  0
  7  8  2  0  0  0  0
  7 10  1  0  0  0  0
  8  9  1  0  0  0  0
  9 13  1  0  0  0  0
 10 14  1  0  0  0  0
 10 15  1  0  0  0  0
 11 16  1  0  0  0  0
 11 17  1  0  0  0  0
M  END
$$$$
Target_lig_169
 OpenBabel05122505463D

 17 18  0  0  1  0  0  0  0  0999 V2000
   -1.3095    0.5166    0.3223 C   0  0  0  0  0  0  0  0  0  0  0  0
   -0.2679    1.2711    0.2241 N   0  0  0  0  0  0  0  0  0  0  0  0
    0.9231    0.6982   -0.1406 C   0  0  0  0  0  0  0  0  0  0  0  0
    1.1990   -0.5636   -0.0965 N   0  0  0  0  0  0  0  0  0  0  0  0
    0.1891   -1.4489    0.4111 C   0  0  3  0  0  0  0  0  0  0  0  0
   -1.1520   -0.9177    0.1150 C   0  0  0  0  0  0  0  0  0  0  0  0
   -1.9688   -1.7512   -0.4257 N   0  0  0  0  0  0  0  0  0  0  0  0
   -1.1467   -2.8449   -0.6040 C   0  0  0  0  0  0  0  0  0  0  0  0
    0.1083   -2.7420   -0.2641 N   0  0  0  0  0  0  0  0  0  0  0  0
    0.4034   -1.6953    1.8156 N   0  0  0  0  0  0  0  0  0  0  0  0
    1.8916    1.5585   -0.5305 N   0  0  0  0  0  0  0  0  0  0  0  0
   -2.3184    0.8823    0.5566 H   0  0  0  0  0  0  0  0  0  0  0  0
   -1.5466   -3.7593   -1.0727 H   0  0  0  0  0  0  0  0  0  0  0  0
    0.7908   -0.8395    2.2032 H   0  0  0  0  0  0  0  0  0  0  0  0
    1.1820   -2.3539    1.8225 H   0  0  0  0  0  0  0  0  0  0  0  0
    1.7706    2.4897   -0.1545 H   0  0  0  0  0  0  0  0  0  0  0  0
    2.8226    1.1779   -0.4162 H   0  0  0  0  0  0  0  0  0  0  0  0
  1  2  2  0  0  0  0
  1  6  1  0  0  0  0
  1 12  1  0  0  0  0
  2  3  1  0  0  0  0
  3  4  2  0  0  0  0
  3 11  1  0  0  0  0
  4  5  1  0  0  0  0
  5  6  1  0  0  0  0
  5  9  1  0  0  0  0
  5 10  1  0  0  0  0
  6  7  2  0  0  0  0
  7  8  1  0  0  0  0
  8  9  2  0  0  0  0
  8 13  1  0  0  0  0
 10 14  1  0  0  0  0
 10 15  1  0  0  0  0
 11 16  1  0  0  0  0
 11 17  1  0  0  0  0
M  END
$$$$
Target_lig_173
 OpenBabel05122505463D

209217  0  0  1  0  0  0  0  0999 V2000
   14.2799   14.9179    9.7598 C   0  0  0  0  0  0  0  0  0  0  0  0
   12.9076   14.3162    9.6067 C   0  0  0  0  0  0  0  0  0  0  0  0
   11.7873   14.9274   10.2100 C   0  0  0  0  0  0  0  0  0  0  0  0
   10.5375   14.3228   10.0673 C   0  0  0  0  0  0  0  0  0  0  0  0
   10.3436   13.1637    9.3596 C   0  0  0  0  0  0  0  0  0  0  0  0
   11.4587   12.5383    8.7480 C   0  0  0  0  0  0  0  0  0  0  0  0
   12.7392   13.1181    8.8656 C   0  0  0  0  0  0  0  0  0  0  0  0
   13.9243   12.4302    8.2237 C   0  0  0  0  0  0  0  0  0  0  0  0
    9.0088   12.8464    9.4315 N   0  0  0  0  0  0  0  0  0  0  0  0
    8.4763   13.8281   10.2013 C   0  0  0  0  0  0  0  0  0  0  0  0
    9.3807   14.7493   10.5936 N   0  0  0  0  0  0  0  0  0  0  0  0
    8.1319   11.7636    8.9178 C   0  0  3  0  0  0  0  0  0  0  0  0
    8.8329   10.7104    8.0722 C   0  0  3  0  0  0  0  0  0  0  0  0
    7.9150   10.5784    6.8615 C   0  0  3  0  0  0  0  0  0  0  0  0
    6.6436   11.3233    7.2070 C   0  0  3  0  0  0  0  0  0  0  0  0
    7.0275   12.2892    8.1800 O   0  0  0  0  0  0  0  0  0  0  0  0
    5.4593   10.4491    7.6388 C   0  0  0  0  0  0  0  0  0  0  0  0
    4.3789   11.2515    7.9860 O   0  0  0  0  0  0  0  0  0  0  0  0
    7.8829    9.3811    6.1165 O   0  0  0  0  0  0  0  0  0  0  0  0
    7.2106    8.0855    7.0450 P   0  0  3  0  0  0  0  0  0  0  0  0
    7.1152    7.3102    5.7011 O   0  0  0  0  0  0  0  0  0  0  0  0
    8.8512    7.6746    7.4008 O   0  5  0  0  0  0  0  0  0  0  0  0
    6.5383    6.7898    7.9736 O   0  0  0  0  0  0  0  0  0  0  0  0
    6.9958    5.4491    7.5054 C   0  0  3  0  0  0  0  0  0  0  0  0
    8.5259    5.1578    7.3929 C   0  0  0  0  0  0  0  0  0  0  0  0
    6.5241    4.3034    8.4042 C   0  0  0  0  0  0  0  0  0  0  0  0
    5.1061    4.2949    8.4474 N   0  0  0  0  0  0  0  0  0  0  0  0
    4.4525    4.5019    9.6044 C   0  0  0  0  0  0  0  0  0  0  0  0
    5.0359    4.6358   10.6669 O   0  0  0  0  0  0  0  0  0  0  0  0
    3.0503    4.7947    9.5172 C   0  0  0  0  0  0  0  0  0  0  0  0
    2.1149    3.6589    9.1270 C   0  0  0  0  0  0  0  0  0  0  0  0
    0.7961    4.3264    8.6379 C   0  0  3  0  0  0  0  0  0  0  0  0
    0.1496    5.1078    9.8570 C   0  0  3  0  0  0  0  0  0  0  0  0
   -1.2657    4.4065   10.0966 C   0  0  3  0  0  0  0  0  0  0  0  0
   -2.7059    5.1921    9.9970 C   0  0  3  0  0  0  0  0  0  0  0  0
   -3.5394    4.9609    8.6460 C   0  0  3  0  0  0  0  0  0  0  0  0
   -2.9239    6.1351    7.7830 C   0  0  3  0  0  0  0  0  0  0  0  0
   -2.5006    7.1882    8.8437 C   0  0  0  0  0  0  0  0  0  0  0  0
   -2.4511    6.6236    9.9986 N   0  0  0  0  0  0  0  0  0  0  0  0
   -1.7516    8.5654    8.6665 C   0  0  0  0  0  0  0  0  0  0  0  0
   -1.1300    8.8757    7.4798 C   0  0  0  0  0  0  0  0  0  0  0  0
   -0.3941   10.1223    6.8786 C   0  0  3  0  0  0  0  0  0  0  0  0
   -0.6477    9.7721    5.3433 C   0  0  3  0  0  0  0  0  0  0  0  0
   -0.7092    8.2276    5.4171 C   0  0  0  0  0  0  0  0  0  0  0  0
   -1.0336    7.8437    6.5632 N   0  0  0  0  0  0  0  0  0  0  0  0
   -0.7334    7.2196    4.3438 C   0  0  0  0  0  0  0  0  0  0  0  0
   -0.7603    5.8291    4.3646 C   0  0  0  0  0  0  0  0  0  0  0  0
   -0.6963    5.0899    3.0945 C   0  0  0  0  0  0  0  0  0  0  0  0
   -0.8367    3.5627    3.6366 C   0  0  3  0  0  0  0  0  0  0  0  0
   -0.5361    3.6671    5.3147 C   0  0  0  0  0  0  0  0  0  0  0  0
   -0.7085    4.9495    5.4956 N   0  0  0  0  0  0  0  0  0  0  0  0
   -0.3858    2.7597    6.8329 C   0  0  0  0  0  0  0  0  0  0  0  0
   -0.1912    3.2879    8.1906 C   0  0  0  0  0  0  0  0  0  0  0  0
   -1.1960    3.2150    9.2318 N   0  5  0  0  0  0  0  0  0  0  0  0
    0.2853    1.3353    6.9889 C   0  0  0  0  0  0  0  0  0  0  0  0
   -0.8885    2.6270    2.2926 C   0  0  0  0  0  0  0  0  0  0  0  0
    0.1690    2.6580    1.0910 C   0  0  0  0  0  0  0  0  0  0  0  0
   -0.2419    1.8982   -0.1833 C   0  0  0  0  0  0  0  0  0  0  0  0
   -1.3263    1.3396   -0.2397 O   0  0  0  0  0  0  0  0  0  0  0  0
    0.5672    1.8692   -1.2770 N   0  0  0  0  0  0  0  0  0  0  0  0
   -1.7860    5.6560    2.0927 C   0  0  0  0  0  0  0  0  0  0  0  0
    0.6836    5.4367    2.4500 C   0  0  0  0  0  0  0  0  0  0  0  0
    0.3438   10.4332    4.3213 C   0  0  0  0  0  0  0  0  0  0  0  0
    0.0064   10.3599    2.8235 C   0  0  0  0  0  0  0  0  0  0  0  0
   -1.3022   11.0216    2.4971 C   0  0  0  0  0  0  0  0  0  0  0  0
   -2.2294   10.3461    2.0786 O   0  0  0  0  0  0  0  0  0  0  0  0
   -1.4536   12.3591    2.6395 N   0  0  0  0  0  0  0  0  0  0  0  0
   -1.0104   11.4681    7.3146 C   0  0  0  0  0  0  0  0  0  0  0  0
    1.1545   10.1424    7.1669 C   0  0  0  0  0  0  0  0  0  0  0  0
    1.9880   11.3185    6.6567 C   0  0  0  0  0  0  0  0  0  0  0  0
    2.8096   11.1377    5.7673 O   0  0  0  0  0  0  0  0  0  0  0  0
    1.9199   12.5441    7.2273 N   0  0  0  0  0  0  0  0  0  0  0  0
   -1.5615    9.4758    9.8599 C   0  0  0  0  0  0  0  0  0  0  0  0
   -3.7531    6.6084    6.5277 C   0  0  0  0  0  0  0  0  0  0  0  0
   -5.0746    7.4056    6.7131 C   0  0  0  0  0  0  0  0  0  0  0  0
   -4.9200    8.5685    7.6474 C   0  0  0  0  0  0  0  0  0  0  0  0
   -5.5259    8.5860    8.7091 O   0  0  0  0  0  0  0  0  0  0  0  0
   -4.1139    9.5955    7.3261 N   0  0  0  0  0  0  0  0  0  0  0  0
   -3.5051    3.5709    7.9401 C   0  0  0  0  0  0  0  0  0  0  0  0
   -5.0402    5.2088    8.8161 C   0  0  0  0  0  0  0  0  0  0  0  0
   -5.9526    4.3815    9.6157 C   0  0  0  0  0  0  0  0  0  0  0  0
   -5.6921    3.2556   10.0097 O   0  0  0  0  0  0  0  0  0  0  0  0
   -7.1917    4.9264    9.9063 N   0  0  0  0  0  0  0  0  0  0  0  0
   -3.5528    4.9264   11.2832 C   0  0  0  0  0  0  0  0  0  0  0  0
    0.2940    6.6577    9.7628 C   0  0  0  0  0  0  0  0  0  0  0  0
    1.6001    7.3906    9.4287 C   0  0  0  0  0  0  0  0  0  0  0  0
    1.8014    7.7832    8.3032 O   0  0  0  0  0  0  0  0  0  0  0  0
    2.5277    7.6691   10.3537 N   0  0  0  0  0  0  0  0  0  0  0  0
    1.0697    5.1015    7.3981 C   0  0  0  0  0  0  0  0  0  0  0  0
    9.1474    9.5897    8.8590 O   0  0  0  0  0  0  0  0  0  0  0  0
    1.1199   -0.5758    1.5829 C   0  5  0  0  0  0  0  0  0  0  0  0
    2.4986   -0.4477    0.9067 C   0  0  3  0  0  0  0  0  0  0  0  0
    3.4425   -1.4334    1.6083 C   0  0  3  0  0  0  0  0  0  0  0  0
    4.6513   -0.5554    1.9146 C   0  0  3  0  0  0  0  0  0  0  0  0
    4.4239    0.8696    1.2790 C   0  0  3  0  0  0  0  0  0  0  0  0
    3.0248    0.8877    1.0066 O   0  0  0  0  0  0  0  0  0  0  0  0
    5.2022    1.4514    0.1105 N   0  0  0  0  0  0  0  0  0  0  0  0
    6.3056    0.9938   -0.5568 C   0  0  0  0  0  0  0  0  0  0  0  0
    6.6740    1.7981   -1.6059 N   0  0  0  0  0  0  0  0  0  0  0  0
    5.8118    2.8332   -1.5644 C   0  0  0  0  0  0  0  0  0  0  0  0
    5.6578    3.9403   -2.4159 C   0  0  0  0  0  0  0  0  0  0  0  0
    4.7346    4.8704   -2.0627 N   0  0  0  0  0  0  0  0  0  0  0  0
    3.9546    4.7274   -0.9495 C   0  0  0  0  0  0  0  0  0  0  0  0
    4.0336    3.5842   -0.1824 N   0  0  0  0  0  0  0  0  0  0  0  0
    4.9727    2.6556   -0.4921 C   0  0  0  0  0  0  0  0  0  0  0  0
    6.3507    4.0845   -3.6482 N   0  0  0  0  0  0  0  0  0  0  0  0
    5.8893   -1.1774    2.1446 O   0  0  0  0  0  0  0  0  0  0  0  0
    3.6778   -2.6301    0.9040 O   0  0  0  0  0  0  0  0  0  0  0  0
    0.0874   -1.8103   -2.0167 Co  0  1  0  0  0  0  0  0  0  0  0  0
   14.2762   15.8099   10.4180 H   0  0  0  0  0  0  0  0  0  0  0  0
   14.6821   15.2120    8.7666 H   0  0  0  0  0  0  0  0  0  0  0  0
   14.9575   14.1610   10.2092 H   0  0  0  0  0  0  0  0  0  0  0  0
   11.8837   15.8419   10.7804 H   0  0  0  0  0  0  0  0  0  0  0  0
   11.4479   11.6218    8.2111 H   0  0  0  0  0  0  0  0  0  0  0  0
   13.6209   11.5668    7.5943 H   0  0  0  0  0  0  0  0  0  0  0  0
   14.6030   12.0520    9.0165 H   0  0  0  0  0  0  0  0  0  0  0  0
   14.4847   13.1326    7.5710 H   0  0  0  0  0  0  0  0  0  0  0  0
    7.4294   13.8701   10.4776 H   0  0  0  0  0  0  0  0  0  0  0  0
    7.6710   11.2588    9.7998 H   0  0  0  0  0  0  0  0  0  0  0  0
    9.7357   11.0232    7.5767 H   0  0  0  0  0  0  0  0  0  0  0  0
    8.3474   11.3200    6.1403 H   0  0  0  0  0  0  0  0  0  0  0  0
    6.2843   11.8607    6.2989 H   0  0  0  0  0  0  0  0  0  0  0  0
    5.6993    9.7531    8.4722 H   0  0  0  0  0  0  0  0  0  0  0  0
    5.1515    9.8306    6.7576 H   0  0  0  0  0  0  0  0  0  0  0  0
    4.3827   11.3290    8.9707 H   0  0  0  0  0  0  0  0  0  0  0  0
    6.5318    5.2264    6.5190 H   0  0  0  0  0  0  0  0  0  0  0  0
    9.0471    5.4019    8.3470 H   0  0  0  0  0  0  0  0  0  0  0  0
    8.9922    5.6402    6.5116 H   0  0  0  0  0  0  0  0  0  0  0  0
    8.7332    4.0846    7.1921 H   0  0  0  0  0  0  0  0  0  0  0  0
    6.9816    4.4138    9.4095 H   0  0  0  0  0  0  0  0  0  0  0  0
    6.8292    3.3156    7.9924 H   0  0  0  0  0  0  0  0  0  0  0  0
    4.5911    4.2223    7.5508 H   0  0  0  0  0  0  0  0  0  0  0  0
    3.0816    5.5609    8.7341 H   0  0  0  0  0  0  0  0  0  0  0  0
    2.7286    5.2420   10.4618 H   0  0  0  0  0  0  0  0  0  0  0  0
    1.9763    3.0061   10.0275 H   0  0  0  0  0  0  0  0  0  0  0  0
    2.5417    3.0257    8.3231 H   0  0  0  0  0  0  0  0  0  0  0  0
    0.6881    4.8381   10.7980 H   0  0  0  0  0  0  0  0  0  0  0  0
   -1.2151    4.0926   11.1742 H   0  0  0  0  0  0  0  0  0  0  0  0
   -1.9825    5.7317    7.4041 H   0  0  0  0  0  0  0  0  0  0  0  0
   -1.6723   10.1200    5.0919 H   0  0  0  0  0  0  0  0  0  0  0  0
   -0.7205    7.6870    3.3965 H   0  0  0  0  0  0  0  0  0  0  0  0
   -1.9290    3.4358    3.8406 H   0  0  0  0  0  0  0  0  0  0  0  0
   -0.3552    0.4834    7.3196 H   0  0  0  0  0  0  0  0  0  0  0  0
    0.8552    1.2639    7.9729 H   0  0  0  0  0  0  0  0  0  0  0  0
    1.2364    1.1646    6.4374 H   0  0  0  0  0  0  0  0  0  0  0  0
   -1.7879    2.9949    1.7386 H   0  0  0  0  0  0  0  0  0  0  0  0
   -1.1548    1.5870    2.5477 H   0  0  0  0  0  0  0  0  0  0  0  0
    1.1640    2.3424    1.4424 H   0  0  0  0  0  0  0  0  0  0  0  0
    0.3002    3.6313    0.6391 H   0  0  0  0  0  0  0  0  0  0  0  0
    1.4894    2.3418   -1.2835 H   0  0  0  0  0  0  0  0  0  0  0  0
    0.2765    1.3902   -2.1458 H   0  0  0  0  0  0  0  0  0  0  0  0
   -2.8066    5.7403    2.5200 H   0  0  0  0  0  0  0  0  0  0  0  0
   -1.8191    5.1247    1.1215 H   0  0  0  0  0  0  0  0  0  0  0  0
   -1.5238    6.6893    1.7575 H   0  0  0  0  0  0  0  0  0  0  0  0
    1.5217    4.8700    2.8946 H   0  0  0  0  0  0  0  0  0  0  0  0
    0.9155    6.5183    2.5000 H   0  0  0  0  0  0  0  0  0  0  0  0
    0.6801    5.3787    1.3556 H   0  0  0  0  0  0  0  0  0  0  0  0
    1.3360    9.9584    4.4226 H   0  0  0  0  0  0  0  0  0  0  0  0
    0.4151   11.5186    4.5569 H   0  0  0  0  0  0  0  0  0  0  0  0
    0.0163    9.3227    2.4722 H   0  0  0  0  0  0  0  0  0  0  0  0
    0.8072   10.8657    2.2390 H   0  0  0  0  0  0  0  0  0  0  0  0
   -0.6708   12.9495    2.9578 H   0  0  0  0  0  0  0  0  0  0  0  0
   -2.3495   12.8106    2.4046 H   0  0  0  0  0  0  0  0  0  0  0  0
   -2.1049   11.4824    7.1790 H   0  0  0  0  0  0  0  0  0  0  0  0
   -0.5974   12.3146    6.7294 H   0  0  0  0  0  0  0  0  0  0  0  0
   -0.7749   11.6703    8.3808 H   0  0  0  0  0  0  0  0  0  0  0  0
    1.5758    9.2552    6.6558 H   0  0  0  0  0  0  0  0  0  0  0  0
    1.3412   10.0990    8.2602 H   0  0  0  0  0  0  0  0  0  0  0  0
    1.3116   12.7259    8.0357 H   0  0  0  0  0  0  0  0  0  0  0  0
    2.5313   13.3035    6.8910 H   0  0  0  0  0  0  0  0  0  0  0  0
   -1.9811    9.0273   10.7831 H   0  0  0  0  0  0  0  0  0  0  0  0
   -2.0149   10.4708    9.7254 H   0  0  0  0  0  0  0  0  0  0  0  0
   -0.4651    9.5919   10.0409 H   0  0  0  0  0  0  0  0  0  0  0  0
   -3.9347    5.7220    5.8823 H   0  0  0  0  0  0  0  0  0  0  0  0
   -3.1415    7.2699    5.9103 H   0  0  0  0  0  0  0  0  0  0  0  0
   -5.9306    6.8159    7.0530 H   0  0  0  0  0  0  0  0  0  0  0  0
   -5.4124    7.7624    5.7202 H   0  0  0  0  0  0  0  0  0  0  0  0
   -3.6099    9.5980    6.4293 H   0  0  0  0  0  0  0  0  0  0  0  0
   -3.9906   10.3767    7.9844 H   0  0  0  0  0  0  0  0  0  0  0  0
   -2.5763    3.3310    7.4763 H   0  0  0  0  0  0  0  0  0  0  0  0
   -4.1400    3.5237    7.0375 H   0  0  0  0  0  0  0  0  0  0  0  0
   -3.7822    2.7487    8.6347 H   0  0  0  0  0  0  0  0  0  0  0  0
   -5.4995    5.0577    7.8151 H   0  0  0  0  0  0  0  0  0  0  0  0
   -5.1613    6.2546    9.1724 H   0  0  0  0  0  0  0  0  0  0  0  0
   -7.3903    5.8874    9.5923 H   0  0  0  0  0  0  0  0  0  0  0  0
   -7.8244    4.4184   10.4591 H   0  0  0  0  0  0  0  0  0  0  0  0
   -3.8287    3.8623   11.3964 H   0  0  0  0  0  0  0  0  0  0  0  0
   -4.4711    5.5592   11.3020 H   0  0  0  0  0  0  0  0  0  0  0  0
   -3.0183    5.2438   12.2020 H   0  0  0  0  0  0  0  0  0  0  0  0
   -0.1787    7.1735   10.6164 H   0  0  0  0  0  0  0  0  0  0  0  0
   -0.2273    6.8093    8.8615 H   0  0  0  0  0  0  0  0  0  0  0  0
    2.3976    7.3970   11.3307 H   0  0  0  0  0  0  0  0  0  0  0  0
    3.3853    8.1707   10.0677 H   0  0  0  0  0  0  0  0  0  0  0  0
    1.7471    5.9036    7.2581 H   0  0  0  0  0  0  0  0  0  0  0  0
    0.1247    5.5919    7.3048 H   0  0  0  0  0  0  0  0  0  0  0  0
    1.4494    4.3945    6.6310 H   0  0  0  0  0  0  0  0  0  0  0  0
    8.3173    9.2472    9.2802 H   0  0  0  0  0  0  0  0  0  0  0  0
    0.4524   -1.3077    1.0837 H   0  0  0  0  0  0  0  0  0  0  0  0
    0.5742    0.3413    1.7636 H   0  0  0  0  0  0  0  0  0  0  0  0
    2.3855   -0.6770   -0.1761 H   0  0  0  0  0  0  0  0  0  0  0  0
    2.9995   -1.7628    2.5882 H   0  0  0  0  0  0  0  0  0  0  0  0
    4.3688   -0.2810    2.9564 H   0  0  0  0  0  0  0  0  0  0  0  0
    4.6102    1.5954    2.1029 H   0  0  0  0  0  0  0  0  0  0  0  0
    6.8679    0.1093   -0.3087 H   0  0  0  0  0  0  0  0  0  0  0  0
    3.2671    5.5222   -0.6897 H   0  0  0  0  0  0  0  0  0  0  0  0
    6.9482    3.3374   -4.0290 H   0  0  0  0  0  0  0  0  0  0  0  0
    6.1083    4.8710   -4.2748 H   0  0  0  0  0  0  0  0  0  0  0  0
    6.4247   -1.1443    1.3252 H   0  0  0  0  0  0  0  0  0  0  0  0
    3.7999   -2.4333   -0.0547 H   0  0  0  0  0  0  0  0  0  0  0  0
  1  2  1  0  0  0  0
  1110  1  0  0  0  0
  1111  1  0  0  0  0
  1112  1  0  0  0  0
  2  3  2  0  0  0  0
  2  7  1  0  0  0  0
  3  4  1  0  0  0  0
  3113  1  0  0  0  0
  4  5  2  0  0  0  0
  4 11  1  0  0  0  0
  5  6  1  0  0  0  0
  5  9  1  0  0  0  0
  6  7  2  0  0  0  0
  6114  1  0  0  0  0
  7  8  1  0  0  0  0
  8115  1  0  0  0  0
  8116  1  0  0  0  0
  8117  1  0  0  0  0
  9 10  1  0  0  0  0
  9 12  1  0  0  0  0
 10 11  2  0  0  0  0
 10118  1  0  0  0  0
 12 13  1  0  0  0  0
 12 16  1  0  0  0  0
 12119  1  0  0  0  0
 13 14  1  0  0  0  0
 13 90  1  0  0  0  0
 13120  1  0  0  0  0
 14 15  1  0  0  0  0
 14 19  1  0  0  0  0
 14121  1  0  0  0  0
 15 16  1  0  0  0  0
 15 17  1  0  0  0  0
 15122  1  0  0  0  0
 17 18  1  0  0  0  0
 17123  1  0  0  0  0
 17124  1  0  0  0  0
 18125  1  0  0  0  0
 19 20  1  0  0  0  0
 20 21  2  0  0  0  0
 20 22  1  0  0  0  0
 20 23  1  0  0  0  0
 23 24  1  0  0  0  0
 24 25  1  0  0  0  0
 24 26  1  0  0  0  0
 24126  1  0  0  0  0
 25127  1  0  0  0  0
 25128  1  0  0  0  0
 25129  1  0  0  0  0
 26 27  1  0  0  0  0
 26130  1  0  0  0  0
 26131  1  0  0  0  0
 27 28  1  0  0  0  0
 27132  1  0  0  0  0
 28 29  2  0  0  0  0
 28 30  1  0  0  0  0
 30 31  1  0  0  0  0
 30133  1  0  0  0  0
 30134  1  0  0  0  0
 31 32  1  0  0  0  0
 31135  1  0  0  0  0
 31136  1  0  0  0  0
 32 33  1  0  0  0  0
 32 53  1  0  0  0  0
 32 89  1  0  0  0  0
 33 34  1  0  0  0  0
 33 85  1  0  0  0  0
 33137  1  0  0  0  0
 34 35  1  0  0  0  0
 34 54  1  0  0  0  0
 34138  1  0  0  0  0
 35 36  1  0  0  0  0
 35 39  1  0  0  0  0
 35 84  1  0  0  0  0
 36 37  1  0  0  0  0
 36 79  1  0  0  0  0
 36 80  1  0  0  0  0
 37 38  1  0  0  0  0
 37 74  1  0  0  0  0
 37139  1  0  0  0  0
 38 39  2  0  0  0  0
 38 40  1  0  0  0  0
 40 41  2  3  0  0  0
 40 73  1  0  0  0  0
 41 42  1  0  0  0  0
 41 45  1  0  0  0  0
 42 43  1  0  0  0  0
 42 68  1  0  0  0  0
 42 69  1  0  0  0  0
 43 44  1  0  0  0  0
 43 63  1  0  0  0  0
 43140  1  0  0  0  0
 44 45  2  0  0  0  0
 44 46  1  0  0  0  0
 46 47  2  3  0  0  0
 46141  1  0  0  0  0
 47 48  1  0  0  0  0
 47 51  1  0  0  0  0
 48 49  1  0  0  0  0
 48 61  1  0  0  0  0
 48 62  1  0  0  0  0
 49 50  1  0  0  0  0
 49 56  1  0  0  0  0
 49142  1  0  0  0  0
 50 51  2  0  0  0  0
 50 52  1  0  0  0  0
 52 53  2  3  0  0  0
 52 55  1  0  0  0  0
 53 54  1  0  0  0  0
 55143  1  0  0  0  0
 55144  1  0  0  0  0
 55145  1  0  0  0  0
 56 57  1  0  0  0  0
 56146  1  0  0  0  0
 56147  1  0  0  0  0
 57 58  1  0  0  0  0
 57148  1  0  0  0  0
 57149  1  0  0  0  0
 58 59  2  0  0  0  0
 58 60  1  0  0  0  0
 60150  1  0  0  0  0
 60151  1  0  0  0  0
 61152  1  0  0  0  0
 61153  1  0  0  0  0
 61154  1  0  0  0  0
 62155  1  0  0  0  0
 62156  1  0  0  0  0
 62157  1  0  0  0  0
 63 64  1  0  0  0  0
 63158  1  0  0  0  0
 63159  1  0  0  0  0
 64 65  1  0  0  0  0
 64160  1  0  0  0  0
 64161  1  0  0  0  0
 65 66  2  0  0  0  0
 65 67  1  0  0  0  0
 67162  1  0  0  0  0
 67163  1  0  0  0  0
 68164  1  0  0  0  0
 68165  1  0  0  0  0
 68166  1  0  0  0  0
 69 70  1  0  0  0  0
 69167  1  0  0  0  0
 69168  1  0  0  0  0
 70 71  2  0  0  0  0
 70 72  1  0  0  0  0
 72169  1  0  0  0  0
 72170  1  0  0  0  0
 73171  1  0  0  0  0
 73172  1  0  0  0  0
 73173  1  0  0  0  0
 74 75  1  0  0  0  0
 74174  1  0  0  0  0
 74175  1  0  0  0  0
 75 76  1  0  0  0  0
 75176  1  0  0  0  0
 75177  1  0  0  0  0
 76 77  2  0  0  0  0
 76 78  1  0  0  0  0
 78178  1  0  0  0  0
 78179  1  0  0  0  0
 79180  1  0  0  0  0
 79181  1  0  0  0  0
 79182  1  0  0  0  0
 80 81  1  0  0  0  0
 80183  1  0  0  0  0
 80184  1  0  0  0  0
 81 82  2  0  0  0  0
 81 83  1  0  0  0  0
 83185  1  0  0  0  0
 83186  1  0  0  0  0
 84187  1  0  0  0  0
 84188  1  0  0  0  0
 84189  1  0  0  0  0
 85 86  1  0  0  0  0
 85190  1  0  0  0  0
 85191  1  0  0  0  0
 86 87  2  0  0  0  0
 86 88  1  0  0  0  0
 88192  1  0  0  0  0
 88193  1  0  0  0  0
 89194  1  0  0  0  0
 89195  1  0  0  0  0
 89196  1  0  0  0  0
 90197  1  0  0  0  0
 91 92  1  0  0  0  0
 91198  1  0  0  0  0
 91199  1  0  0  0  0
 92 93  1  0  0  0  0
 92 96  1  0  0  0  0
 92200  1  0  0  0  0
 93 94  1  0  0  0  0
 93108  1  0  0  0  0
 93201  1  0  0  0  0
 94 95  1  0  0  0  0
 94107  1  0  0  0  0
 94202  1  0  0  0  0
 95 96  1  0  0  0  0
 95 97  1  0  0  0  0
 95203  1  0  0  0  0
 97 98  1  0  0  0  0
 97105  1  0  0  0  0
 98 99  2  0  0  0  0
 98204  1  0  0  0  0
 99100  1  0  0  0  0
100101  2  0  0  0  0
100105  1  0  0  0  0
101102  1  0  0  0  0
101106  1  0  0  0  0
102103  2  0  0  0  0
103104  1  0  0  0  0
103205  1  0  0  0  0
104105  2  0  0  0  0
106206  1  0  0  0  0
106207  1  0  0  0  0
107208  1  0  0  0  0
108209  1  0  0  0  0
M  CHG  4  22  -1  54  -1  91  -1 109   3
M  END
$$$$
Target_lig_162
 OpenBabel05122505463D

 14 15  0  0  0  0  0  0  0  0999 V2000
   -2.2802   -0.0841    0.0011 C   0  0  0  0  0  0  0  0  0  0  0  0
   -1.5209   -1.1645    0.0011 N   0  0  0  0  0  0  0  0  0  0  0  0
   -0.2600   -0.6735   -0.0001 C   0  0  0  0  0  0  0  0  0  0  0  0
   -0.2253    0.6872   -0.0008 C   0  0  0  0  0  0  0  0  0  0  0  0
   -1.5343    1.0701   -0.0000 N   0  0  0  0  0  0  0  0  0  0  0  0
    0.9765    1.4582   -0.0022 C   0  0  0  0  0  0  0  0  0  0  0  0
    0.9747    2.6821   -0.0024 O   0  0  0  0  0  0  0  0  0  0  0  0
    2.1266    0.6851   -0.0033 N   0  0  0  0  0  0  0  0  0  0  0  0
    2.0115   -0.6074   -0.0025 C   0  0  0  0  0  0  0  0  0  0  0  0
    0.8730   -1.3718   -0.0007 N   0  0  0  0  0  0  0  0  0  0  0  0
   -3.3627   -0.0694    0.0018 H   0  0  0  0  0  0  0  0  0  0  0  0
   -1.8800    2.0214   -0.0002 H   0  0  0  0  0  0  0  0  0  0  0  0
    2.9265   -1.2239   -0.0034 H   0  0  0  0  0  0  0  0  0  0  0  0
    0.8931   -2.3824   -0.0001 H   0  0  0  0  0  0  0  0  0  0  0  0
  1  2  2  0  0  0  0
  1  5  1  0  0  0  0
  1 11  1  0  0  0  0
  2  3  1  0  0  0  0
  3  4  2  0  0  0  0
  3 10  1  0  0  0  0
  4  5  1  0  0  0  0
  4  6  1  0  0  0  0
  5 12  1  0  0  0  0
  6  7  2  0  0  0  0
  6  8  1  0  0  0  0
  8  9  2  0  0  0  0
  9 10  1  0  0  0  0
  9 13  1  0  0  0  0
 10 14  1  0  0  0  0
M  END
$$$$
Target_lig_248
 OpenBabel05122505463D

 16 17  0  0  0  0  0  0  0  0999 V2000
   -2.2625   -0.0847   -0.0030 C   0  0  0  0  0  0  0  0  0  0  0  0
   -1.4959   -1.1559   -0.0069 N   0  0  0  0  0  0  0  0  0  0  0  0
   -0.2192   -0.6717   -0.0048 C   0  0  0  0  0  0  0  0  0  0  0  0
   -0.2155    0.6936   -0.0016 C   0  0  0  0  0  0  0  0  0  0  0  0
   -1.5245    1.0691   -0.0002 N   0  0  0  0  0  0  0  0  0  0  0  0
    0.9683    1.4644    0.0041 C   0  0  0  0  0  0  0  0  0  0  0  0
    1.0137    2.6882    0.0080 O   0  0  0  0  0  0  0  0  0  0  0  0
    2.0918    0.6728    0.0060 N   0  0  0  0  0  0  0  0  0  0  0  0
    2.0487   -0.7031    0.0126 C   0  0  0  0  0  0  0  0  0  0  0  0
    0.9615   -1.4180    0.0009 N   0  0  0  0  0  0  0  0  0  0  0  0
    3.2512   -1.3254    0.0368 N   0  0  0  0  0  0  0  0  0  0  0  0
   -3.3446   -0.0821   -0.0022 H   0  0  0  0  0  0  0  0  0  0  0  0
   -1.8776    2.0172    0.0038 H   0  0  0  0  0  0  0  0  0  0  0  0
    2.9708    1.1551    0.0204 H   0  0  0  0  0  0  0  0  0  0  0  0
    4.1355   -0.8508   -0.0430 H   0  0  0  0  0  0  0  0  0  0  0  0
    3.2431   -2.3375   -0.0249 H   0  0  0  0  0  0  0  0  0  0  0  0
  1  2  2  0  0  0  0
  1  5  1  0  0  0  0
  1 12  1  0  0  0  0
  2  3  1  0  0  0  0
  3  4  2  0  0  0  0
  3 10  1  0  0  0  0
  4  5  1  0  0  0  0
  4  6  1  0  0  0  0
  5 13  1  0  0  0  0
  6  7  2  0  0  0  0
  6  8  1  0  0  0  0
  8  9  1  0  0  0  0
  8 14  1  0  0  0  0
  9 10  2  0  0  0  0
  9 11  1  0  0  0  0
 11 15  1  0  0  0  0
 11 16  1  0  0  0  0
M  END
$$$$
Target_lig_249
 OpenBabel05122505463D

 18 19  0  0  0  0  0  0  0  0999 V2000
   -2.2621   -0.1408   -0.0565 C   0  0  0  0  0  0  0  0  0  0  0  0
   -1.4592   -1.1812   -0.0892 N   0  0  0  0  0  0  0  0  0  0  0  0
   -0.1959   -0.6572   -0.0109 C   0  0  0  0  0  0  0  0  0  0  0  0
   -0.2332    0.7222    0.0409 C   0  0  0  0  0  0  0  0  0  0  0  0
   -1.5641    1.0337    0.0175 N   0  0  0  0  0  0  0  0  0  0  0  0
    0.9410    1.4392    0.1241 C   0  0  0  0  0  0  0  0  0  0  0  0
    2.0891    0.7227    0.1719 N   0  0  0  0  0  0  0  0  0  0  0  0
    2.0343   -0.6200    0.1366 C   0  0  0  0  0  0  0  0  0  0  0  0
    0.9404   -1.3683    0.0211 N   0  0  0  0  0  0  0  0  0  0  0  0
    3.2432   -1.2883    0.1937 N   0  0  0  0  0  0  0  0  0  0  0  0
    0.9977    2.8372    0.1882 N   0  0  0  0  0  0  0  0  0  0  0  0
    2.2348    3.4581   -0.0075 O   0  0  0  0  0  0  0  0  0  0  0  0
   -3.3438   -0.1754   -0.0761 H   0  0  0  0  0  0  0  0  0  0  0  0
   -1.9683    1.9576    0.0740 H   0  0  0  0  0  0  0  0  0  0  0  0
    3.9860   -0.7068   -0.1640 H   0  0  0  0  0  0  0  0  0  0  0  0
    3.1413   -2.2132   -0.2012 H   0  0  0  0  0  0  0  0  0  0  0  0
    0.2339    3.3126   -0.2813 H   0  0  0  0  0  0  0  0  0  0  0  0
    2.8704    2.7785    0.3058 H   0  0  0  0  0  0  0  0  0  0  0  0
  1  2  2  0  0  0  0
  1  5  1  0  0  0  0
  1 13  1  0  0  0  0
  2  3  1  0  0  0  0
  3  4  2  0  0  0  0
  3  9  1  0  0  0  0
  4  5  1  0  0  0  0
  4  6  1  0  0  0  0
  5 14  1  0  0  0  0
  6  7  2  0  0  0  0
  6 11  1  0  0  0  0
  7  8  1  0  0  0  0
  8  9  2  0  0  0  0
  8 10  1  0  0  0  0
 10 15  1  0  0  0  0
 10 16  1  0  0  0  0
 11 12  1  0  0  0  0
 11 17  1  0  0  0  0
 12 18  1  0  0  0  0
M  END
$$$$
Target_lig_250
 OpenBabel05122505463D

 17 17  0  0  0  0  0  0  0  0999 V2000
   -0.7835    1.2236   -0.0727 C   0  0  0  0  0  0  0  0  0  0  0  0
   -1.3794    0.0140    0.0534 C   0  0  0  0  0  0  0  0  0  0  0  0
   -0.6923   -1.1725    0.0468 N   0  0  0  0  0  0  0  0  0  0  0  0
    0.5954   -1.1473   -0.0681 C   0  0  0  0  0  0  0  0  0  0  0  0
    1.3064    0.0047   -0.1443 N   0  0  0  0  0  0  0  0  0  0  0  0
    0.7110    1.2264   -0.1290 C   0  0  0  0  0  0  0  0  0  0  0  0
    1.3536    2.2740   -0.1318 O   0  0  0  0  0  0  0  0  0  0  0  0
    1.3024   -2.3033   -0.1131 N   0  0  0  0  0  0  0  0  0  0  0  0
   -2.7645   -0.0418    0.1398 N   0  0  0  0  0  0  0  0  0  0  0  0
   -1.4476    2.4541   -0.1002 N   0  0  0  0  0  0  0  0  0  0  0  0
    2.3093   -0.0052   -0.2141 H   0  0  0  0  0  0  0  0  0  0  0  0
    0.7582   -3.1089    0.1780 H   0  0  0  0  0  0  0  0  0  0  0  0
    2.2511   -2.3008    0.2324 H   0  0  0  0  0  0  0  0  0  0  0  0
   -3.1779    0.6716   -0.4573 H   0  0  0  0  0  0  0  0  0  0  0  0
   -3.0551   -0.9759   -0.1378 H   0  0  0  0  0  0  0  0  0  0  0  0
   -2.2553    2.4314    0.5175 H   0  0  0  0  0  0  0  0  0  0  0  0
   -0.7934    3.2021    0.1435 H   0  0  0  0  0  0  0  0  0  0  0  0
  1  2  2  0  0  0  0
  1  6  1  0  0  0  0
  1 10  1  0  0  0  0
  2  3  1  0  0  0  0
  2  9  1  0  0  0  0
  3  4  2  0  0  0  0
  4  5  1  0  0  0  0
  4  8  1  0  0  0  0
  5  6  1  0  0  0  0
  5 11  1  0  0  0  0
  6  7  2  0  0  0  0
  8 12  1  0  0  0  0
  8 13  1  0  0  0  0
  9 14  1  0  0  0  0
  9 15  1  0  0  0  0
 10 16  1  0  0  0  0
 10 17  1  0  0  0  0
M  END
$$$$
Target_lig_314
 OpenBabel05122505463D

 49 51  0  0  1  0  0  0  0  0999 V2000
    3.2519   -0.2349   -2.0293 C   0  0  0  0  0  0  0  0  0  0  0  0
    2.7234    0.0177   -0.3177 S   0  3  3  0  0  0  0  0  0  0  0  0
    0.9877   -0.5155   -0.6125 C   0  0  0  0  0  0  0  0  0  0  0  0
    0.1530   -0.4201    0.6617 C   0  0  0  0  0  0  0  0  0  0  0  0
   -1.3138   -0.7956    0.4274 C   0  0  3  0  0  0  0  0  0  0  0  0
   -1.4071   -2.2910   -0.0597 C   0  0  0  0  0  0  0  0  0  0  0  0
   -1.4922   -3.1491    0.8693 O   0  0  0  0  0  0  0  0  0  0  0  0
   -1.4092   -2.4484   -1.3140 O   0  5  0  0  0  0  0  0  0  0  0  0
   -2.0678   -0.6590    1.7193 N   0  0  0  0  0  0  0  0  0  0  0  0
    3.3212   -1.5821    0.3666 C   0  0  0  0  0  0  0  0  0  0  0  0
    4.8377   -1.7501    0.2412 C   0  0  3  0  0  0  0  0  0  0  0  0
    5.3514   -3.0652    0.8535 C   0  0  3  0  0  0  0  0  0  0  0  0
    6.6310   -2.6634    1.5958 C   0  0  3  0  0  0  0  0  0  0  0  0
    6.8581   -1.1975    1.2183 C   0  0  3  0  0  0  0  0  0  0  0  0
    5.5599   -0.6821    0.8869 O   0  0  0  0  0  0  0  0  0  0  0  0
    7.7765   -0.8773    0.1394 N   0  0  0  0  0  0  0  0  0  0  0  0
    8.5245    0.2772    0.0945 C   0  0  0  0  0  0  0  0  0  0  0  0
    9.3224    0.3152   -0.9532 N   0  0  0  0  0  0  0  0  0  0  0  0
    9.0599   -0.8543   -1.6322 C   0  0  0  0  0  0  0  0  0  0  0  0
    9.5806   -1.3935   -2.8263 C   0  0  0  0  0  0  0  0  0  0  0  0
    9.0881   -2.5645   -3.2779 N   0  0  0  0  0  0  0  0  0  0  0  0
    8.1393   -3.1811   -2.5503 C   0  0  0  0  0  0  0  0  0  0  0  0
    7.5821   -2.7821   -1.3849 N   0  0  0  0  0  0  0  0  0  0  0  0
    8.0868   -1.5991   -0.9828 C   0  0  0  0  0  0  0  0  0  0  0  0
   10.5684   -0.7700   -3.5777 N   0  0  0  0  0  0  0  0  0  0  0  0
    7.7517   -3.5200    1.4226 O   0  0  0  0  0  0  0  0  0  0  0  0
    5.5858   -4.0649   -0.1368 O   0  0  0  0  0  0  0  0  0  0  0  0
    2.7551    0.5046   -2.6622 H   0  0  0  0  0  0  0  0  0  0  0  0
    3.0075   -1.2411   -2.3770 H   0  0  0  0  0  0  0  0  0  0  0  0
    4.3300   -0.0701   -2.0965 H   0  0  0  0  0  0  0  0  0  0  0  0
    1.0015   -1.5291   -1.0210 H   0  0  0  0  0  0  0  0  0  0  0  0
    0.5755    0.1537   -1.3754 H   0  0  0  0  0  0  0  0  0  0  0  0
    0.2012    0.6080    1.0455 H   0  0  0  0  0  0  0  0  0  0  0  0
    0.5880   -1.0621    1.4379 H   0  0  0  0  0  0  0  0  0  0  0  0
   -1.7756   -0.1328   -0.3130 H   0  0  0  0  0  0  0  0  0  0  0  0
   -1.6922   -1.4334    2.2880 H   0  0  0  0  0  0  0  0  0  0  0  0
   -3.0043   -1.0200    1.5158 H   0  0  0  0  0  0  0  0  0  0  0  0
    2.8180   -2.4107   -0.1412 H   0  0  0  0  0  0  0  0  0  0  0  0
    3.0230   -1.5837    1.4203 H   0  0  0  0  0  0  0  0  0  0  0  0
    5.1030   -1.7205   -0.8201 H   0  0  0  0  0  0  0  0  0  0  0  0
    4.6321   -3.4847    1.5650 H   0  0  0  0  0  0  0  0  0  0  0  0
    6.3944   -2.6814    2.6673 H   0  0  0  0  0  0  0  0  0  0  0  0
    7.2238   -0.6543    2.0984 H   0  0  0  0  0  0  0  0  0  0  0  0
    8.4457    1.0463    0.8505 H   0  0  0  0  0  0  0  0  0  0  0  0
    7.7737   -4.1223   -2.9542 H   0  0  0  0  0  0  0  0  0  0  0  0
   10.6252    0.2276   -3.4025 H   0  0  0  0  0  0  0  0  0  0  0  0
   10.5426   -1.0736   -4.5402 H   0  0  0  0  0  0  0  0  0  0  0  0
    7.7406   -3.8111    0.4889 H   0  0  0  0  0  0  0  0  0  0  0  0
    6.1199   -3.6544   -0.8455 H   0  0  0  0  0  0  0  0  0  0  0  0
  1  2  1  0  0  0  0
  1 28  1  0  0  0  0
  1 29  1  0  0  0  0
  1 30  1  0  0  0  0
  2  3  1  0  0  0  0
  2 10  1  0  0  0  0
  3  4  1  0  0  0  0
  3 31  1  0  0  0  0
  3 32  1  0  0  0  0
  4  5  1  0  0  0  0
  4 33  1  0  0  0  0
  4 34  1  0  0  0  0
  5  6  1  0  0  0  0
  5  9  1  0  0  0  0
  5 35  1  0  0  0  0
  6  7  2  0  0  0  0
  6  8  1  0  0  0  0
  9 36  1  0  0  0  0
  9 37  1  0  0  0  0
 10 11  1  0  0  0  0
 10 38  1  0  0  0  0
 10 39  1  0  0  0  0
 11 12  1  0  0  0  0
 11 15  1  0  0  0  0
 11 40  1  0  0  0  0
 12 13  1  0  0  0  0
 12 27  1  0  0  0  0
 12 41  1  0  0  0  0
 13 14  1  0  0  0  0
 13 26  1  0  0  0  0
 13 42  1  0  0  0  0
 14 15  1  0  0  0  0
 14 16  1  0  0  0  0
 14 43  1  0  0  0  0
 16 17  1  0  0  0  0
 16 24  1  0  0  0  0
 17 18  2  0  0  0  0
 17 44  1  0  0  0  0
 18 19  1  0  0  0  0
 19 20  2  0  0  0  0
 19 24  1  0  0  0  0
 20 21  1  0  0  0  0
 20 25  1  0  0  0  0
 21 22  2  0  0  0  0
 22 23  1  0  0  0  0
 22 45  1  0  0  0  0
 23 24  2  0  0  0  0
 25 46  1  0  0  0  0
 25 47  1  0  0  0  0
 26 48  1  0  0  0  0
 27 49  1  0  0  0  0
M  CHG  2   2   1   8  -1
M  END
$$$$
Target_lig_318
 OpenBabel05122505463D

 44 45  0  0  0  0  0  0  0  0999 V2000
    1.1841    0.1710   -0.3500 C   0  0  0  0  0  0  0  0  0  0  0  0
    2.6530    0.1514   -0.1172 C   0  0  0  0  0  0  0  0  0  0  0  0
    3.4872   -0.9506   -0.0294 C   0  0  0  0  0  0  0  0  0  0  0  0
    5.1275   -0.4262    0.0361 S   0  0  0  0  0  0  0  0  0  0  0  0
    4.6653    1.2004    0.1889 C   0  0  0  0  0  0  0  0  0  0  0  0
    3.3589    1.3425    0.0438 N   0  3  0  0  0  0  0  0  0  0  0  0
    2.7573    2.6750    0.1473 C   0  0  0  0  0  0  0  0  0  0  0  0
    2.6286    3.3609   -1.1800 C   0  0  0  0  0  0  0  0  0  0  0  0
    2.9783    2.8065   -2.3977 C   0  0  0  0  0  0  0  0  0  0  0  0
    2.7871    3.4107   -3.5827 N   0  0  0  0  0  0  0  0  0  0  0  0
    2.2477    4.6381   -3.5500 C   0  0  0  0  0  0  0  0  0  0  0  0
    1.9415    5.2927   -2.4178 N   0  0  0  0  0  0  0  0  0  0  0  0
    2.1353    4.6501   -1.2600 C   0  0  0  0  0  0  0  0  0  0  0  0
    1.8118    5.3837   -0.1175 N   0  0  0  0  0  0  0  0  0  0  0  0
    1.8630    5.2751   -4.8484 C   0  0  0  0  0  0  0  0  0  0  0  0
    3.1230   -2.4144   -0.0142 C   0  0  0  0  0  0  0  0  0  0  0  0
    4.0795   -3.2868    0.8025 C   0  0  0  0  0  0  0  0  0  0  0  0
    4.1589   -2.8904    2.1702 O   0  0  0  0  0  0  0  0  0  0  0  0
    2.7616   -3.0403    3.1792 P   0  0  3  0  0  0  0  0  0  0  0  0
    2.2717   -4.2626    2.3766 O   0  0  0  0  0  0  0  0  0  0  0  0
    3.6802   -3.7610    4.3299 O   0  0  0  0  0  0  0  0  0  0  0  0
    1.3643   -3.1903    4.1882 O   0  0  0  0  0  0  0  0  0  0  0  0
    0.8731   -1.6223    4.7296 P   0  0  3  0  0  0  0  0  0  0  0  0
    1.2185   -1.1029    3.3046 O   0  0  0  0  0  0  0  0  0  0  0  0
   -0.6730   -2.1218    4.5438 O   0  0  0  0  0  0  0  0  0  0  0  0
    0.3818   -0.0544    5.2711 O   0  5  0  0  0  0  0  0  0  0  0  0
    0.8696   -0.7153   -0.9132 H   0  0  0  0  0  0  0  0  0  0  0  0
    0.8789    1.0327   -0.9516 H   0  0  0  0  0  0  0  0  0  0  0  0
    0.6386    0.1921    0.5965 H   0  0  0  0  0  0  0  0  0  0  0  0
    5.3669    2.0093    0.3499 H   0  0  0  0  0  0  0  0  0  0  0  0
    3.3852    3.2792    0.8152 H   0  0  0  0  0  0  0  0  0  0  0  0
    1.7755    2.5856    0.6248 H   0  0  0  0  0  0  0  0  0  0  0  0
    3.4277    1.8222   -2.4941 H   0  0  0  0  0  0  0  0  0  0  0  0
    1.5301    6.3117   -0.4422 H   0  0  0  0  0  0  0  0  0  0  0  0
    1.0492    4.9844    0.4171 H   0  0  0  0  0  0  0  0  0  0  0  0
    2.2655    4.7131   -5.6965 H   0  0  0  0  0  0  0  0  0  0  0  0
    2.2370    6.3013   -4.8988 H   0  0  0  0  0  0  0  0  0  0  0  0
    0.7717    5.2911   -4.9333 H   0  0  0  0  0  0  0  0  0  0  0  0
    3.0891   -2.7823   -1.0470 H   0  0  0  0  0  0  0  0  0  0  0  0
    2.1085   -2.5114    0.3913 H   0  0  0  0  0  0  0  0  0  0  0  0
    5.0952   -3.2395    0.3932 H   0  0  0  0  0  0  0  0  0  0  0  0
    3.8061   -4.3432    0.7232 H   0  0  0  0  0  0  0  0  0  0  0  0
    3.5911   -4.7220    4.1679 H   0  0  0  0  0  0  0  0  0  0  0  0
   -0.9435   -1.6726    3.7247 H   0  0  0  0  0  0  0  0  0  0  0  0
  1  2  1  0  0  0  0
  1 27  1  0  0  0  0
  1 28  1  0  0  0  0
  1 29  1  0  0  0  0
  2  3  2  0  0  0  0
  2  6  1  0  0  0  0
  3  4  1  0  0  0  0
  3 16  1  0  0  0  0
  4  5  1  0  0  0  0
  5  6  2  0  0  0  0
  5 30  1  0  0  0  0
  6  7  1  0  0  0  0
  7  8  1  0  0  0  0
  7 31  1  0  0  0  0
  7 32  1  0  0  0  0
  8  9  2  0  0  0  0
  8 13  1  0  0  0  0
  9 10  1  0  0  0  0
  9 33  1  0  0  0  0
 10 11  2  0  0  0  0
 11 12  1  0  0  0  0
 11 15  1  0  0  0  0
 12 13  2  0  0  0  0
 13 14  1  0  0  0  0
 14 34  1  0  0  0  0
 14 35  1  0  0  0  0
 15 36  1  0  0  0  0
 15 37  1  0  0  0  0
 15 38  1  0  0  0  0
 16 17  1  0  0  0  0
 16 39  1  0  0  0  0
 16 40  1  0  0  0  0
 17 18  1  0  0  0  0
 17 41  1  0  0  0  0
 17 42  1  0  0  0  0
 18 19  1  0  0  0  0
 19 20  2  0  0  0  0
 19 21  1  0  0  0  0
 19 22  1  0  0  0  0
 21 43  1  0  0  0  0
 22 23  1  0  0  0  0
 23 24  2  0  0  0  0
 23 25  1  0  0  0  0
 23 26  1  0  0  0  0
 25 44  1  0  0  0  0
M  CHG  2   6   1  26  -1
M  END
$$$$
Target_lig_68
 OpenBabel05122505463D

 52 54  0  0  1  0  0  0  0  0999 V2000
    0.9276   -0.2203    0.0476 C   0  0  0  0  0  0  0  0  0  0  0  0
    2.4151   -0.0954   -0.1520 C   0  0  0  0  0  0  0  0  0  0  0  0
    3.2212   -1.2323   -0.0384 C   0  0  0  0  0  0  0  0  0  0  0  0
    4.6178   -1.1569   -0.1303 C   0  0  0  0  0  0  0  0  0  0  0  0
    5.2589    0.0889   -0.3312 C   0  0  0  0  0  0  0  0  0  0  0  0
    4.4347    1.2115   -0.5330 C   0  0  0  0  0  0  0  0  0  0  0  0
    3.0279    1.1411   -0.4141 C   0  0  0  0  0  0  0  0  0  0  0  0
    2.2009    2.3949   -0.5309 C   0  0  0  0  0  0  0  0  0  0  0  0
    6.6730    0.1394   -0.3064 N   0  0  0  0  0  0  0  0  0  0  0  0
    7.3865   -1.0475   -0.1490 C   0  0  0  0  0  0  0  0  0  0  0  0
    8.6839   -1.0805   -0.1116 N   0  0  0  0  0  0  0  0  0  0  0  0
    9.3911   -2.2351    0.0443 C   0  0  0  0  0  0  0  0  0  0  0  0
   10.6080   -2.2303    0.2034 O   0  0  0  0  0  0  0  0  0  0  0  0
    8.7452   -3.4346    0.0326 N   0  0  0  0  0  0  0  0  0  0  0  0
    7.3959   -3.6114    0.0946 C   0  0  0  0  0  0  0  0  0  0  0  0
    6.8700   -4.7043    0.2589 O   0  0  0  0  0  0  0  0  0  0  0  0
    6.6165   -2.3372   -0.0160 C   0  0  0  0  0  0  0  0  0  0  0  0
    5.3199   -2.3684    0.0001 N   0  0  0  0  0  0  0  0  0  0  0  0
    7.3948    1.4126   -0.1599 C   0  0  0  0  0  0  0  0  0  0  0  0
    7.1968    2.1224    1.1956 C   0  0  3  0  0  0  0  0  0  0  0  0
    7.5690    1.3701    2.5029 C   0  0  3  0  0  0  0  0  0  0  0  0
    7.2742    2.2570    3.7561 C   0  0  3  0  0  0  0  0  0  0  0  0
    5.8027    2.7057    3.8255 C   0  0  0  0  0  0  0  0  0  0  0  0
    5.5607    3.5700    4.9255 O   0  0  0  0  0  0  0  0  0  0  0  0
    4.0736    3.5446    5.5170 P   0  0  0  0  0  0  0  0  0  0  0  0
    3.4385    2.2050    5.6535 O   0  0  0  0  0  0  0  0  0  0  0  0
    4.1866    4.4063    6.8497 O   0  0  0  0  0  0  0  0  0  0  0  0
    3.2263    4.5240    4.5817 O   0  0  0  0  0  0  0  0  0  0  0  0
    7.6225    1.5393    4.9506 O   0  0  0  0  0  0  0  0  0  0  0  0
    6.9347    0.0908    2.6238 O   0  0  0  0  0  0  0  0  0  0  0  0
    7.9092    3.3735    1.1677 O   0  0  0  0  0  0  0  0  0  0  0  0
    0.6142   -1.2678    0.1130 H   0  0  0  0  0  0  0  0  0  0  0  0
    0.3809    0.2285   -0.7876 H   0  0  0  0  0  0  0  0  0  0  0  0
    0.6337    0.2738    0.9798 H   0  0  0  0  0  0  0  0  0  0  0  0
    2.7697   -2.2061    0.1487 H   0  0  0  0  0  0  0  0  0  0  0  0
    4.8727    2.1752   -0.7809 H   0  0  0  0  0  0  0  0  0  0  0  0
    2.8223    3.2760   -0.7172 H   0  0  0  0  0  0  0  0  0  0  0  0
    1.6565    2.5684    0.4038 H   0  0  0  0  0  0  0  0  0  0  0  0
    1.4847    2.3108   -1.3547 H   0  0  0  0  0  0  0  0  0  0  0  0
    9.3266   -4.2480    0.1651 H   0  0  0  0  0  0  0  0  0  0  0  0
    7.1082    2.0960   -0.9707 H   0  0  0  0  0  0  0  0  0  0  0  0
    8.4733    1.2856   -0.3231 H   0  0  0  0  0  0  0  0  0  0  0  0
    6.1391    2.3817    1.2336 H   0  0  0  0  0  0  0  0  0  0  0  0
    8.6453    1.1569    2.4980 H   0  0  0  0  0  0  0  0  0  0  0  0
    7.9190    3.1431    3.7490 H   0  0  0  0  0  0  0  0  0  0  0  0
    5.1657    1.8228    3.9180 H   0  0  0  0  0  0  0  0  0  0  0  0
    5.5060    3.2563    2.9314 H   0  0  0  0  0  0  0  0  0  0  0  0
    4.6776    5.2315    6.6903 H   0  0  0  0  0  0  0  0  0  0  0  0
    2.2719    4.3693    4.7265 H   0  0  0  0  0  0  0  0  0  0  0  0
    7.2649    0.6361    4.8919 H   0  0  0  0  0  0  0  0  0  0  0  0
    6.0889    0.1658    3.0968 H   0  0  0  0  0  0  0  0  0  0  0  0
    8.8471    3.1993    1.3785 H   0  0  0  0  0  0  0  0  0  0  0  0
  1  2  1  0  0  0  0
  1 32  1  0  0  0  0
  1 33  1  0  0  0  0
  1 34  1  0  0  0  0
  2  3  2  0  0  0  0
  2  7  1  0  0  0  0
  3  4  1  0  0  0  0
  3 35  1  0  0  0  0
  4  5  2  0  0  0  0
  4 18  1  0  0  0  0
  5  6  1  0  0  0  0
  5  9  1  0  0  0  0
  6  7  2  0  0  0  0
  6 36  1  0  0  0  0
  7  8  1  0  0  0  0
  8 37  1  0  0  0  0
  8 38  1  0  0  0  0
  8 39  1  0  0  0  0
  9 10  1  0  0  0  0
  9 19  1  0  0  0  0
 10 11  2  0  0  0  0
 10 17  1  0  0  0  0
 11 12  1  0  0  0  0
 12 13  2  0  0  0  0
 12 14  1  0  0  0  0
 14 15  1  0  0  0  0
 14 40  1  0  0  0  0
 15 16  2  0  0  0  0
 15 17  1  0  0  0  0
 17 18  2  0  0  0  0
 19 20  1  0  0  0  0
 19 41  1  0  0  0  0
 19 42  1  0  0  0  0
 20 21  1  0  0  0  0
 20 31  1  0  0  0  0
 20 43  1  0  0  0  0
 21 22  1  0  0  0  0
 21 30  1  0  0  0  0
 21 44  1  0  0  0  0
 22 23  1  0  0  0  0
 22 29  1  0  0  0  0
 22 45  1  0  0  0  0
 23 24  1  0  0  0  0
 23 46  1  0  0  0  0
 23 47  1  0  0  0  0
 24 25  1  0  0  0  0
 25 26  2  0  0  0  0
 25 27  1  0  0  0  0
 25 28  1  0  0  0  0
 27 48  1  0  0  0  0
 28 49  1  0  0  0  0
 29 50  1  0  0  0  0
 30 51  1  0  0  0  0
 31 52  1  0  0  0  0
M  END
$$$$
Target_lig_331
 OpenBabel05122505463D

 22 23  0  0  0  0  0  0  0  0999 V2000
   -2.7534    0.5434    0.1242 C   0  0  0  0  0  0  0  0  0  0  0  0
   -2.1966   -0.7306    0.1129 C   0  0  0  0  0  0  0  0  0  0  0  0
   -0.7855   -0.5236    0.0074 C   0  0  0  0  0  0  0  0  0  0  0  0
   -0.5470    0.8325    0.0072 C   0  0  0  0  0  0  0  0  0  0  0  0
   -1.7465    1.4741    0.0597 N   0  0  0  0  0  0  0  0  0  0  0  0
    0.6410    1.4775   -0.0437 N   0  0  0  0  0  0  0  0  0  0  0  0
    1.6670    0.6746   -0.0776 C   0  0  0  0  0  0  0  0  0  0  0  0
    1.5658   -0.6990   -0.0762 N   0  0  0  0  0  0  0  0  0  0  0  0
    0.3671   -1.3905   -0.0877 C   0  0  0  0  0  0  0  0  0  0  0  0
    0.3164   -2.6108   -0.1993 O   0  0  0  0  0  0  0  0  0  0  0  0
    2.9272    1.1844   -0.1075 N   0  0  0  0  0  0  0  0  0  0  0  0
   -2.9727   -2.0072    0.1556 C   0  0  0  0  0  0  0  0  0  0  0  0
   -2.2731   -3.0225    0.9267 N   0  0  0  0  0  0  0  0  0  0  0  0
   -3.7864    0.8617    0.1724 H   0  0  0  0  0  0  0  0  0  0  0  0
   -1.8562    2.4780    0.0501 H   0  0  0  0  0  0  0  0  0  0  0  0
    2.3912   -1.2636   -0.1713 H   0  0  0  0  0  0  0  0  0  0  0  0
    2.9261    2.1778    0.1065 H   0  0  0  0  0  0  0  0  0  0  0  0
    3.6260    0.6780    0.4191 H   0  0  0  0  0  0  0  0  0  0  0  0
   -3.1611   -2.3613   -0.8632 H   0  0  0  0  0  0  0  0  0  0  0  0
   -3.9442   -1.8296    0.6315 H   0  0  0  0  0  0  0  0  0  0  0  0
   -1.3650   -3.1999    0.4804 H   0  0  0  0  0  0  0  0  0  0  0  0
   -2.7786   -3.9018    0.8437 H   0  0  0  0  0  0  0  0  0  0  0  0
  1  2  2  0  0  0  0
  1  5  1  0  0  0  0
  1 14  1  0  0  0  0
  2  3  1  0  0  0  0
  2 12  1  0  0  0  0
  3  4  2  0  0  0  0
  3  9  1  0  0  0  0
  4  5  1  0  0  0  0
  4  6  1  0  0  0  0
  5 15  1  0  0  0  0
  6  7  2  0  0  0  0
  7  8  1  0  0  0  0
  7 11  1  0  0  0  0
  8  9  1  0  0  0  0
  8 16  1  0  0  0  0
  9 10  2  0  0  0  0
 11 17  1  0  0  0  0
 11 18  1  0  0  0  0
 12 13  1  0  0  0  0
 12 19  1  0  0  0  0
 12 20  1  0  0  0  0
 13 21  1  0  0  0  0
 13 22  1  0  0  0  0
M  END
$$$$
Target_lig_1248
 OpenBabel05122505463D

 49 51  0  0  1  0  0  0  0  0999 V2000
    3.4909    0.6261    1.1247 C   0  0  0  0  0  0  0  0  0  0  0  0
    2.7237   -0.8747    0.4789 S   0  3  3  0  0  0  0  0  0  0  0  0
    1.0992   -0.0763    0.0848 C   0  0  0  0  0  0  0  0  0  0  0  0
    0.1423   -1.0847   -0.5512 C   0  0  0  0  0  0  0  0  0  0  0  0
   -1.2265   -0.4854   -0.8847 C   0  0  3  0  0  0  0  0  0  0  0  0
   -1.0628    0.6528   -1.9624 C   0  0  0  0  0  0  0  0  0  0  0  0
   -1.1196    0.2581   -3.1661 O   0  0  0  0  0  0  0  0  0  0  0  0
   -0.9141    1.8167   -1.4953 O   0  5  0  0  0  0  0  0  0  0  0  0
   -2.1000   -1.5677   -1.4557 N   0  0  0  0  0  0  0  0  0  0  0  0
    3.3584   -0.7696   -1.2251 C   0  0  0  0  0  0  0  0  0  0  0  0
    4.8570   -0.9767   -1.3995 C   0  0  3  0  0  0  0  0  0  0  0  0
    5.4717   -2.2677   -0.8445 C   0  0  3  0  0  0  0  0  0  0  0  0
    6.7335   -1.8058   -0.1087 C   0  0  3  0  0  0  0  0  0  0  0  0
    6.9055   -0.3399   -0.4975 C   0  0  3  0  0  0  0  0  0  0  0  0
    5.6204    0.1461   -0.9112 O   0  0  0  0  0  0  0  0  0  0  0  0
    7.8841   -0.0482   -1.5323 N   0  0  0  0  0  0  0  0  0  0  0  0
    8.9745    0.7731   -1.3642 C   0  0  0  0  0  0  0  0  0  0  0  0
    9.6831    0.8888   -2.4718 N   0  0  0  0  0  0  0  0  0  0  0  0
    9.0242    0.1041   -3.3924 C   0  0  0  0  0  0  0  0  0  0  0  0
    9.2611   -0.1663   -4.7512 C   0  0  0  0  0  0  0  0  0  0  0  0
    8.3760   -0.9327   -5.4291 N   0  0  0  0  0  0  0  0  0  0  0  0
    7.3392   -1.4581   -4.7495 C   0  0  0  0  0  0  0  0  0  0  0  0
    7.0619   -1.3377   -3.4428 N   0  0  0  0  0  0  0  0  0  0  0  0
    7.9130   -0.4997   -2.8244 C   0  0  0  0  0  0  0  0  0  0  0  0
   10.3483    0.3350   -5.4569 N   0  0  0  0  0  0  0  0  0  0  0  0
    7.8930   -2.6080   -0.3354 O   0  0  0  0  0  0  0  0  0  0  0  0
    5.8258   -3.2028   -1.8746 O   0  0  0  0  0  0  0  0  0  0  0  0
    2.9918    0.8996    2.0600 H   0  0  0  0  0  0  0  0  0  0  0  0
    3.4208    1.4555    0.4165 H   0  0  0  0  0  0  0  0  0  0  0  0
    4.5363    0.4157    1.3530 H   0  0  0  0  0  0  0  0  0  0  0  0
    1.2855    0.7799   -0.5688 H   0  0  0  0  0  0  0  0  0  0  0  0
    0.6869    0.2958    1.0273 H   0  0  0  0  0  0  0  0  0  0  0  0
    0.0077   -1.9281    0.1392 H   0  0  0  0  0  0  0  0  0  0  0  0
    0.5901   -1.5019   -1.4623 H   0  0  0  0  0  0  0  0  0  0  0  0
   -1.7113   -0.0859    0.0124 H   0  0  0  0  0  0  0  0  0  0  0  0
   -1.6715   -1.7470   -2.3766 H   0  0  0  0  0  0  0  0  0  0  0  0
   -2.9575   -1.0887   -1.7448 H   0  0  0  0  0  0  0  0  0  0  0  0
    3.0919    0.2068   -1.6415 H   0  0  0  0  0  0  0  0  0  0  0  0
    2.8337   -1.5397   -1.7991 H   0  0  0  0  0  0  0  0  0  0  0  0
    4.9754   -0.9553   -2.4859 H   0  0  0  0  0  0  0  0  0  0  0  0
    4.8080   -2.8000   -0.1591 H   0  0  0  0  0  0  0  0  0  0  0  0
    6.5252   -1.8414    0.9680 H   0  0  0  0  0  0  0  0  0  0  0  0
    7.2042    0.2389    0.3831 H   0  0  0  0  0  0  0  0  0  0  0  0
    9.1977    1.2587   -0.4284 H   0  0  0  0  0  0  0  0  0  0  0  0
    6.6409   -2.0486   -5.3337 H   0  0  0  0  0  0  0  0  0  0  0  0
   10.7463    1.1619   -5.0272 H   0  0  0  0  0  0  0  0  0  0  0  0
   10.1532    0.3691   -6.4497 H   0  0  0  0  0  0  0  0  0  0  0  0
    7.7637   -3.0261   -1.2104 H   0  0  0  0  0  0  0  0  0  0  0  0
    6.1666   -2.6828   -2.6315 H   0  0  0  0  0  0  0  0  0  0  0  0
  1  2  1  0  0  0  0
  1 28  1  0  0  0  0
  1 29  1  0  0  0  0
  1 30  1  0  0  0  0
  2  3  1  0  0  0  0
  2 10  1  0  0  0  0
  3  4  1  0  0  0  0
  3 31  1  0  0  0  0
  3 32  1  0  0  0  0
  4  5  1  0  0  0  0
  4 33  1  0  0  0  0
  4 34  1  0  0  0  0
  5  6  1  0  0  0  0
  5  9  1  0  0  0  0
  5 35  1  0  0  0  0
  6  7  2  0  0  0  0
  6  8  1  0  0  0  0
  9 36  1  0  0  0  0
  9 37  1  0  0  0  0
 10 11  1  0  0  0  0
 10 38  1  0  0  0  0
 10 39  1  0  0  0  0
 11 12  1  0  0  0  0
 11 15  1  0  0  0  0
 11 40  1  0  0  0  0
 12 13  1  0  0  0  0
 12 27  1  0  0  0  0
 12 41  1  0  0  0  0
 13 14  1  0  0  0  0
 13 26  1  0  0  0  0
 13 42  1  0  0  0  0
 14 15  1  0  0  0  0
 14 16  1  0  0  0  0
 14 43  1  0  0  0  0
 16 17  1  0  0  0  0
 16 24  1  0  0  0  0
 17 18  2  0  0  0  0
 17 44  1  0  0  0  0
 18 19  1  0  0  0  0
 19 20  2  0  0  0  0
 19 24  1  0  0  0  0
 20 21  1  0  0  0  0
 20 25  1  0  0  0  0
 21 22  2  0  0  0  0
 22 23  1  0  0  0  0
 22 45  1  0  0  0  0
 23 24  2  0  0  0  0
 25 46  1  0  0  0  0
 25 47  1  0  0  0  0
 26 48  1  0  0  0  0
 27 49  1  0  0  0  0
M  CHG  2   2   1   8  -1
M  END
$$$$
Target_lig_31
 OpenBabel05122505463D

 24 23  0  0  1  0  0  0  0  0999 V2000
    0.8654    0.0751    0.0530 C   0  0  0  0  0  0  0  0  0  0  0  0
    0.3702    0.0318    1.4996 C   0  0  0  0  0  0  0  0  0  0  0  0
   -1.1585    0.0005    1.5354 C   0  0  0  0  0  0  0  0  0  0  0  0
   -1.6414   -0.0395    2.9096 N   0  0  0  0  0  0  0  0  0  0  0  0
    2.3966    0.0716   -0.0413 C   0  0  0  0  0  0  0  0  0  0  0  0
    2.8910    0.1094   -1.4959 C   0  0  1  0  0  0  0  0  0  0  0  0
    4.4311    0.1398   -1.5720 C   0  0  0  0  0  0  0  0  0  0  0  0
    5.1079   -0.7262   -2.1108 O   0  0  0  0  0  0  0  0  0  0  0  0
    4.9906    1.2463   -1.0281 O   0  0  0  0  0  0  0  0  0  0  0  0
    2.3847   -1.0696   -2.2346 N   0  0  0  0  0  0  0  0  0  0  0  0
    0.4750    0.9741   -0.4395 H   0  0  0  0  0  0  0  0  0  0  0  0
    0.4550   -0.7894   -0.4814 H   0  0  0  0  0  0  0  0  0  0  0  0
    0.7416    0.9084    2.0449 H   0  0  0  0  0  0  0  0  0  0  0  0
    0.7740   -0.8575    1.9999 H   0  0  0  0  0  0  0  0  0  0  0  0
   -1.5313   -0.8769    0.9954 H   0  0  0  0  0  0  0  0  0  0  0  0
   -1.5627    0.8906    1.0414 H   0  0  0  0  0  0  0  0  0  0  0  0
   -1.3135   -0.8921    3.3625 H   0  0  0  0  0  0  0  0  0  0  0  0
   -2.6596   -0.0995    2.9034 H   0  0  0  0  0  0  0  0  0  0  0  0
    2.7994   -0.8136    0.4688 H   0  0  0  0  0  0  0  0  0  0  0  0
    2.7846    0.9391    0.5062 H   0  0  0  0  0  0  0  0  0  0  0  0
    2.5186    1.0054   -2.0051 H   0  0  0  0  0  0  0  0  0  0  0  0
    4.3505    1.8891   -0.6695 H   0  0  0  0  0  0  0  0  0  0  0  0
    2.7866   -1.9080   -1.8036 H   0  0  0  0  0  0  0  0  0  0  0  0
    2.8084   -1.0636   -3.1672 H   0  0  0  0  0  0  0  0  0  0  0  0
  1  2  1  0  0  0  0
  1  5  1  0  0  0  0
  1 11  1  0  0  0  0
  1 12  1  0  0  0  0
  2  3  1  0  0  0  0
  2 13  1  0  0  0  0
  2 14  1  0  0  0  0
  3  4  1  0  0  0  0
  3 15  1  0  0  0  0
  3 16  1  0  0  0  0
  4 17  1  0  0  0  0
  4 18  1  0  0  0  0
  5  6  1  0  0  0  0
  5 19  1  0  0  0  0
  5 20  1  0  0  0  0
  6  7  1  0  0  0  0
  6 10  1  0  0  0  0
  6 21  1  6  0  0  0
  7  8  2  0  0  0  0
  7  9  1  0  0  0  0
  9 22  1  0  0  0  0
 10 23  1  0  0  0  0
 10 24  1  0  0  0  0
M  END
$$$$
Target_lig_502
 OpenBabel05122505463D

 35 36  0  0  0  0  0  0  0  0999 V2000
    0.9887    0.0296   -0.3180 C   0  0  0  0  0  0  0  0  0  0  0  0
    2.4544   -0.0278   -0.0847 C   0  0  0  0  0  0  0  0  0  0  0  0
    3.2402   -1.1678    0.0034 C   0  0  0  0  0  0  0  0  0  0  0  0
    4.8951   -0.7295    0.1668 S   0  0  0  0  0  0  0  0  0  0  0  0
    4.5141    0.9295    0.1920 C   0  0  0  0  0  0  0  0  0  0  0  0
    3.2122    1.1382    0.0640 N   0  3  0  0  0  0  0  0  0  0  0  0
    2.7068    2.5166   -0.0301 C   0  0  0  0  0  0  0  0  0  0  0  0
    2.4385    3.1423    1.3004 C   0  0  0  0  0  0  0  0  0  0  0  0
    3.4346    3.7570    2.0338 C   0  0  0  0  0  0  0  0  0  0  0  0
    3.2186    4.4375    3.1727 N   0  0  0  0  0  0  0  0  0  0  0  0
    1.9540    4.4856    3.6154 C   0  0  0  0  0  0  0  0  0  0  0  0
    0.9269    3.8646    3.0105 N   0  0  0  0  0  0  0  0  0  0  0  0
    1.1844    3.2159    1.8686 C   0  0  0  0  0  0  0  0  0  0  0  0
    0.0611    2.6615    1.2569 N   0  0  0  0  0  0  0  0  0  0  0  0
    1.6403    5.3808    4.7758 C   0  0  0  0  0  0  0  0  0  0  0  0
    2.8629   -2.6280   -0.0435 C   0  0  0  0  0  0  0  0  0  0  0  0
    2.5475   -3.1920    1.3434 C   0  0  0  0  0  0  0  0  0  0  0  0
    3.6723   -3.0851    2.2070 O   0  0  0  0  0  0  0  0  0  0  0  0
    0.6366   -0.8805   -0.8164 H   0  0  0  0  0  0  0  0  0  0  0  0
    0.6998    0.8536   -0.9742 H   0  0  0  0  0  0  0  0  0  0  0  0
    0.4540    0.1095    0.6309 H   0  0  0  0  0  0  0  0  0  0  0  0
    5.2686    1.7007    0.2746 H   0  0  0  0  0  0  0  0  0  0  0  0
    1.8334    2.5676   -0.6851 H   0  0  0  0  0  0  0  0  0  0  0  0
    3.4604    3.1216   -0.5558 H   0  0  0  0  0  0  0  0  0  0  0  0
    4.4749    3.7639    1.7186 H   0  0  0  0  0  0  0  0  0  0  0  0
   -0.6979    2.7959    1.9341 H   0  0  0  0  0  0  0  0  0  0  0  0
   -0.2010    3.1782    0.4230 H   0  0  0  0  0  0  0  0  0  0  0  0
    2.5550    5.7217    5.2707 H   0  0  0  0  0  0  0  0  0  0  0  0
    1.0186    4.8593    5.5083 H   0  0  0  0  0  0  0  0  0  0  0  0
    1.0970    6.2612    4.4165 H   0  0  0  0  0  0  0  0  0  0  0  0
    3.6807   -3.2035   -0.4948 H   0  0  0  0  0  0  0  0  0  0  0  0
    1.9902   -2.7634   -0.6926 H   0  0  0  0  0  0  0  0  0  0  0  0
    2.2630   -4.2475    1.2727 H   0  0  0  0  0  0  0  0  0  0  0  0
    1.7180   -2.6487    1.8069 H   0  0  0  0  0  0  0  0  0  0  0  0
    4.2203   -3.8827    2.0919 H   0  0  0  0  0  0  0  0  0  0  0  0
  1  2  1  0  0  0  0
  1 19  1  0  0  0  0
  1 20  1  0  0  0  0
  1 21  1  0  0  0  0
  2  3  2  0  0  0  0
  2  6  1  0  0  0  0
  3  4  1  0  0  0  0
  3 16  1  0  0  0  0
  4  5  1  0  0  0  0
  5  6  2  0  0  0  0
  5 22  1  0  0  0  0
  6  7  1  0  0  0  0
  7  8  1  0  0  0  0
  7 23  1  0  0  0  0
  7 24  1  0  0  0  0
  8  9  2  0  0  0  0
  8 13  1  0  0  0  0
  9 10  1  0  0  0  0
  9 25  1  0  0  0  0
 10 11  2  0  0  0  0
 11 12  1  0  0  0  0
 11 15  1  0  0  0  0
 12 13  2  0  0  0  0
 13 14  1  0  0  0  0
 14 26  1  0  0  0  0
 14 27  1  0  0  0  0
 15 28  1  0  0  0  0
 15 29  1  0  0  0  0
 15 30  1  0  0  0  0
 16 17  1  0  0  0  0
 16 31  1  0  0  0  0
 16 32  1  0  0  0  0
 17 18  1  0  0  0  0
 17 33  1  0  0  0  0
 17 34  1  0  0  0  0
 18 35  1  0  0  0  0
M  CHG  1   6   1
M  END
$$$$
Target_lig_503
 OpenBabel05122505463D

 41 40  0  0  0  0  0  0  0  0999 V2000
    0.8005   -0.1473   -0.0185 C   0  0  0  0  0  0  0  0  0  0  0  0
    2.3175   -0.0867    0.0072 C   0  0  0  0  0  0  0  0  0  0  0  0
    3.0223    1.1493    0.2118 C   0  0  0  0  0  0  0  0  0  0  0  0
    4.4225    1.1091    0.2853 C   0  0  0  0  0  0  0  0  0  0  0  0
    5.1117   -0.0844    0.1612 C   0  0  0  0  0  0  0  0  0  0  0  0
    4.4128   -1.2560   -0.0688 C   0  0  0  0  0  0  0  0  0  0  0  0
    3.0487   -1.2675   -0.1548 N   0  3  0  0  0  0  0  0  0  0  0  0
    2.4249   -2.5721   -0.4805 C   0  0  0  0  0  0  0  0  0  0  0  0
    2.1406   -2.7366   -1.9696 C   0  0  0  0  0  0  0  0  0  0  0  0
    2.4718   -1.7295   -2.8976 C   0  0  0  0  0  0  0  0  0  0  0  0
    2.1507   -1.8627   -4.2082 N   0  0  0  0  0  0  0  0  0  0  0  0
    1.5152   -2.9686   -4.6646 C   0  0  0  0  0  0  0  0  0  0  0  0
    1.2366   -3.9855   -3.8114 N   0  0  0  0  0  0  0  0  0  0  0  0
    1.5362   -3.9104   -2.4864 C   0  0  0  0  0  0  0  0  0  0  0  0
    1.2240   -5.0212   -1.6626 N   0  0  0  0  0  0  0  0  0  0  0  0
    1.0680   -3.0429   -6.0869 C   0  0  0  0  0  0  0  0  0  0  0  0
    2.3800    2.5385    0.2718 C   0  0  0  0  0  0  0  0  0  0  0  0
    2.6679    3.3283    1.5552 C   0  0  0  0  0  0  0  0  0  0  0  0
    2.0910    2.6939    2.6655 O   0  0  0  0  0  0  0  0  0  0  0  0
    2.2597   -1.6367    3.2750 Br  0  0  0  0  0  0  0  0  0  0  0  0
    1.1993    1.5644   -3.3986 Br  0  5  0  0  0  0  0  0  0  0  0  0
    0.2875    0.7874    0.2452 H   0  0  0  0  0  0  0  0  0  0  0  0
    0.4458   -0.8632    0.7514 H   0  0  0  0  0  0  0  0  0  0  0  0
    0.4400   -0.4695   -1.0146 H   0  0  0  0  0  0  0  0  0  0  0  0
    4.9955    2.0176    0.4255 H   0  0  0  0  0  0  0  0  0  0  0  0
    6.1920   -0.0964    0.2147 H   0  0  0  0  0  0  0  0  0  0  0  0
    4.9832   -2.1696   -0.2053 H   0  0  0  0  0  0  0  0  0  0  0  0
    1.4903   -2.7114    0.1058 H   0  0  0  0  0  0  0  0  0  0  0  0
    3.0896   -3.4067   -0.1643 H   0  0  0  0  0  0  0  0  0  0  0  0
    2.9708   -0.8226   -2.5907 H   0  0  0  0  0  0  0  0  0  0  0  0
    0.8014   -5.8628   -2.0817 H   0  0  0  0  0  0  0  0  0  0  0  0
    1.4475   -5.0396   -0.6588 H   0  0  0  0  0  0  0  0  0  0  0  0
    1.3445   -2.1153   -6.6325 H   0  0  0  0  0  0  0  0  0  0  0  0
   -0.0386   -3.1402   -6.1035 H   0  0  0  0  0  0  0  0  0  0  0  0
    1.5196   -3.9174   -6.5981 H   0  0  0  0  0  0  0  0  0  0  0  0
    1.2911    2.5464    0.1194 H   0  0  0  0  0  0  0  0  0  0  0  0
    2.7974    3.1209   -0.5776 H   0  0  0  0  0  0  0  0  0  0  0  0
    2.2559    4.3598    1.4248 H   0  0  0  0  0  0  0  0  0  0  0  0
    3.7565    3.4537    1.7265 H   0  0  0  0  0  0  0  0  0  0  0  0
    1.3996    3.3083    3.0287 H   0  0  0  0  0  0  0  0  0  0  0  0
    1.9196   -0.2046    2.8607 H   0  0  0  0  0  0  0  0  0  0  0  0
  1  2  1  0  0  0  0
  1 22  1  0  0  0  0
  1 23  1  0  0  0  0
  1 24  1  0  0  0  0
  2  3  2  0  0  0  0
  2  7  1  0  0  0  0
  3  4  1  0  0  0  0
  3 17  1  0  0  0  0
  4  5  2  0  0  0  0
  4 25  1  0  0  0  0
  5  6  1  0  0  0  0
  5 26  1  0  0  0  0
  6  7  2  0  0  0  0
  6 27  1  0  0  0  0
  7  8  1  0  0  0  0
  8  9  1  0  0  0  0
  8 28  1  0  0  0  0
  8 29  1  0  0  0  0
  9 10  2  0  0  0  0
  9 14  1  0  0  0  0
 10 11  1  0  0  0  0
 10 30  1  0  0  0  0
 11 12  2  0  0  0  0
 12 13  1  0  0  0  0
 12 16  1  0  0  0  0
 13 14  2  0  0  0  0
 14 15  1  0  0  0  0
 15 31  1  0  0  0  0
 15 32  1  0  0  0  0
 16 33  1  0  0  0  0
 16 34  1  0  0  0  0
 16 35  1  0  0  0  0
 17 18  1  0  0  0  0
 17 36  1  0  0  0  0
 17 37  1  0  0  0  0
 18 19  1  0  0  0  0
 18 38  1  0  0  0  0
 18 39  1  0  0  0  0
 19 40  1  0  0  0  0
 20 41  1  0  0  0  0
M  CHG  2   7   1  21  -1
M  END
$$$$
Target_lig_504
 OpenBabel05122505463D

 45 46  0  0  0  0  0  0  0  0999 V2000
   -1.0473   -0.2745   -0.2235 N   0  0  0  0  0  0  0  0  0  0  0  0
   -0.6816    0.7786   -0.9818 C   0  0  0  0  0  0  0  0  0  0  0  0
    0.5704    1.0362   -1.3853 N   0  0  0  0  0  0  0  0  0  0  0  0
    1.5129    0.1523   -0.9949 C   0  0  0  0  0  0  0  0  0  0  0  0
    1.2673   -0.9652   -0.2242 C   0  0  0  0  0  0  0  0  0  0  0  0
   -0.0650   -1.1311    0.1347 C   0  0  0  0  0  0  0  0  0  0  0  0
   -0.5035   -2.1786    0.9404 N   0  0  0  0  0  0  0  0  0  0  0  0
    2.3356   -1.9790    0.0904 C   0  0  0  0  0  0  0  0  0  0  0  0
    3.7263   -1.4684    0.2555 N   0  0  0  0  0  0  0  0  0  0  0  0
    3.9242   -0.5092    1.2136 C   0  0  0  0  0  0  0  0  0  0  0  0
    5.0381    0.3058    1.2291 C   0  0  0  0  0  0  0  0  0  0  0  0
    5.9662    0.2085    0.1906 C   0  0  0  0  0  0  0  0  0  0  0  0
    5.7552   -0.6696   -0.8747 C   0  0  0  0  0  0  0  0  0  0  0  0
    4.5711   -1.4181   -0.8387 C   0  0  0  0  0  0  0  0  0  0  0  0
    6.6703   -0.7334   -2.0839 C   0  0  0  0  0  0  0  0  0  0  0  0
    8.1634   -0.3337   -1.9456 C   0  0  0  0  0  0  0  0  0  0  0  0
    8.9671   -1.3770   -1.3982 O   0  0  0  0  0  0  0  0  0  0  0  0
    9.9077   -1.0944   -0.1070 P   0  0  1  0  0  0  0  0  0  0  0  0
    9.2007   -0.2797    0.9449 O   0  0  0  0  0  0  0  0  0  0  0  0
   10.0106   -2.6083    0.4620 O   0  0  0  0  0  0  0  0  0  0  0  0
   12.1861   -0.2303   -0.3851 P   0  0  0  0  0  0  0  0  0  0  0  0
   12.2937    1.0248   -1.1974 O   0  0  0  0  0  0  0  0  0  0  0  0
   12.7798    0.0399    1.1063 O   0  0  0  0  0  0  0  0  0  0  0  0
   13.2963   -1.3171   -0.8330 O   0  0  0  0  0  0  0  0  0  0  0  0
   -1.7516    1.7483   -1.3842 C   0  0  0  0  0  0  0  0  0  0  0  0
    2.5210    0.3912   -1.3248 H   0  0  0  0  0  0  0  0  0  0  0  0
   -0.2349   -3.0914    0.6030 H   0  0  0  0  0  0  0  0  0  0  0  0
   -1.5179   -2.0882    1.0126 H   0  0  0  0  0  0  0  0  0  0  0  0
    2.3080   -2.7467   -0.6943 H   0  0  0  0  0  0  0  0  0  0  0  0
    2.0650   -2.4693    1.0370 H   0  0  0  0  0  0  0  0  0  0  0  0
    4.1010   -2.2610    0.7214 H   0  0  0  0  0  0  0  0  0  0  0  0
    3.1823   -0.4194    2.0105 H   0  0  0  0  0  0  0  0  0  0  0  0
    5.1836    1.0205    2.0322 H   0  0  0  0  0  0  0  0  0  0  0  0
    6.8285    0.8667    0.2198 H   0  0  0  0  0  0  0  0  0  0  0  0
    4.2961   -2.0304   -1.7002 H   0  0  0  0  0  0  0  0  0  0  0  0
    6.2201   -0.0686   -2.8341 H   0  0  0  0  0  0  0  0  0  0  0  0
    6.6280   -1.7540   -2.4862 H   0  0  0  0  0  0  0  0  0  0  0  0
    8.3000    0.6064   -1.4049 H   0  0  0  0  0  0  0  0  0  0  0  0
    8.5494   -0.1714   -2.9590 H   0  0  0  0  0  0  0  0  0  0  0  0
    9.1970   -2.8484    0.9368 H   0  0  0  0  0  0  0  0  0  0  0  0
   12.0715    0.1947    1.7656 H   0  0  0  0  0  0  0  0  0  0  0  0
   14.1770   -0.8961   -0.8809 H   0  0  0  0  0  0  0  0  0  0  0  0
   -2.7483    1.3347   -1.2012 H   0  0  0  0  0  0  0  0  0  0  0  0
   -1.6698    1.9765   -2.4522 H   0  0  0  0  0  0  0  0  0  0  0  0
   -1.6488    2.6753   -0.8142 H   0  0  0  0  0  0  0  0  0  0  0  0
  1  2  1  0  0  0  0
  1  6  2  0  0  0  0
  2  3  2  0  0  0  0
  2 25  1  0  0  0  0
  3  4  1  0  0  0  0
  4  5  2  0  0  0  0
  4 26  1  0  0  0  0
  5  6  1  0  0  0  0
  5  8  1  0  0  0  0
  6  7  1  0  0  0  0
  7 27  1  0  0  0  0
  7 28  1  0  0  0  0
  8  9  1  0  0  0  0
  8 29  1  0  0  0  0
  8 30  1  0  0  0  0
  9 10  2  0  0  0  0
  9 14  1  0  0  0  0
  9 31  1  0  0  0  0
 10 11  1  0  0  0  0
 10 32  1  0  0  0  0
 11 12  2  0  0  0  0
 11 33  1  0  0  0  0
 12 13  1  0  0  0  0
 12 34  1  0  0  0  0
 13 14  2  0  0  0  0
 13 15  1  0  0  0  0
 14 35  1  0  0  0  0
 15 16  1  0  0  0  0
 15 36  1  0  0  0  0
 15 37  1  0  0  0  0
 16 17  1  0  0  0  0
 16 38  1  0  0  0  0
 16 39  1  0  0  0  0
 17 18  1  0  0  0  0
 18 19  2  1  0  0  0
 18 20  1  0  0  0  0
 18 21  1  0  0  0  0
 20 40  1  0  0  0  0
 21 22  2  0  0  0  0
 21 23  1  0  0  0  0
 21 24  1  0  0  0  0
 23 41  1  0  0  0  0
 24 42  1  0  0  0  0
 25 43  1  0  0  0  0
 25 44  1  0  0  0  0
 25 45  1  0  0  0  0
M  END
$$$$
Target_lig_70
 OpenBabel05122505463D

 47 49  0  0  1  0  0  0  0  0999 V2000
    0.8708   -0.1837   -0.0305 C   0  0  0  0  0  0  0  0  0  0  0  0
    2.3582   -0.0482   -0.2124 C   0  0  0  0  0  0  0  0  0  0  0  0
    3.1696   -1.1798   -0.0732 C   0  0  0  0  0  0  0  0  0  0  0  0
    4.5647   -1.0991   -0.1592 C   0  0  0  0  0  0  0  0  0  0  0  0
    5.1982    0.1483   -0.3659 C   0  0  0  0  0  0  0  0  0  0  0  0
    4.3715    1.2655   -0.5827 C   0  0  0  0  0  0  0  0  0  0  0  0
    2.9657    1.1879   -0.4864 C   0  0  0  0  0  0  0  0  0  0  0  0
    2.1361    2.4312   -0.6707 C   0  0  0  0  0  0  0  0  0  0  0  0
    6.6103    0.2092   -0.3445 N   0  0  0  0  0  0  0  0  0  0  0  0
    7.3329   -0.9718   -0.1918 C   0  0  0  0  0  0  0  0  0  0  0  0
    8.6308   -0.9992   -0.1717 N   0  0  0  0  0  0  0  0  0  0  0  0
    9.3454   -2.1512   -0.0284 C   0  0  0  0  0  0  0  0  0  0  0  0
   10.5717   -2.1402    0.0231 O   0  0  0  0  0  0  0  0  0  0  0  0
    8.7051   -3.3504    0.0447 N   0  0  0  0  0  0  0  0  0  0  0  0
    7.3546   -3.5428    0.0433 C   0  0  0  0  0  0  0  0  0  0  0  0
    6.8316   -4.6401    0.1121 O   0  0  0  0  0  0  0  0  0  0  0  0
    6.5696   -2.2641   -0.0577 C   0  0  0  0  0  0  0  0  0  0  0  0
    5.2733   -2.3066   -0.0298 N   0  0  0  0  0  0  0  0  0  0  0  0
    7.3078    1.4931   -0.1970 C   0  0  0  0  0  0  0  0  0  0  0  0
    7.1137    2.2042    1.1625 C   0  0  3  0  0  0  0  0  0  0  0  0
    7.5400    1.4317    2.4361 C   0  0  3  0  0  0  0  0  0  0  0  0
    7.3826    2.3179    3.7097 C   0  0  3  0  0  0  0  0  0  0  0  0
    5.9365    2.7674    3.9729 C   0  0  0  0  0  0  0  0  0  0  0  0
    5.0842    1.6163    3.9930 O   0  0  0  0  0  0  0  0  0  0  0  0
    7.8468    1.5784    4.8501 O   0  0  0  0  0  0  0  0  0  0  0  0
    6.8252    0.1966    2.5815 O   0  0  0  0  0  0  0  0  0  0  0  0
    7.8318    3.4530    1.1172 O   0  0  0  0  0  0  0  0  0  0  0  0
    0.5669   -1.2339    0.0366 H   0  0  0  0  0  0  0  0  0  0  0  0
    0.3309    0.2563   -0.8745 H   0  0  0  0  0  0  0  0  0  0  0  0
    0.5631    0.3119    0.8963 H   0  0  0  0  0  0  0  0  0  0  0  0
    2.7224   -2.1543    0.1171 H   0  0  0  0  0  0  0  0  0  0  0  0
    4.8080    2.2284   -0.8347 H   0  0  0  0  0  0  0  0  0  0  0  0
    2.7621    3.3172   -0.8165 H   0  0  0  0  0  0  0  0  0  0  0  0
    1.5217    2.6084    0.2183 H   0  0  0  0  0  0  0  0  0  0  0  0
    1.4874    2.3321   -1.5471 H   0  0  0  0  0  0  0  0  0  0  0  0
    9.2925   -4.1664    0.1259 H   0  0  0  0  0  0  0  0  0  0  0  0
    7.0123    2.1724   -1.0075 H   0  0  0  0  0  0  0  0  0  0  0  0
    8.3868    1.3781   -0.3643 H   0  0  0  0  0  0  0  0  0  0  0  0
    6.0557    2.4657    1.2487 H   0  0  0  0  0  0  0  0  0  0  0  0
    8.5980    1.1569    2.3566 H   0  0  0  0  0  0  0  0  0  0  0  0
    8.0220    3.2036    3.6376 H   0  0  0  0  0  0  0  0  0  0  0  0
    5.5807    3.4656    3.2082 H   0  0  0  0  0  0  0  0  0  0  0  0
    5.8552    3.2595    4.9478 H   0  0  0  0  0  0  0  0  0  0  0  0
    4.4081    1.7435    3.3000 H   0  0  0  0  0  0  0  0  0  0  0  0
    7.2253    0.8375    4.9783 H   0  0  0  0  0  0  0  0  0  0  0  0
    6.1035    0.3410    3.2295 H   0  0  0  0  0  0  0  0  0  0  0  0
    8.7870    3.2488    1.1531 H   0  0  0  0  0  0  0  0  0  0  0  0
  1  2  1  0  0  0  0
  1 28  1  0  0  0  0
  1 29  1  0  0  0  0
  1 30  1  0  0  0  0
  2  3  2  0  0  0  0
  2  7  1  0  0  0  0
  3  4  1  0  0  0  0
  3 31  1  0  0  0  0
  4  5  2  0  0  0  0
  4 18  1  0  0  0  0
  5  6  1  0  0  0  0
  5  9  1  0  0  0  0
  6  7  2  0  0  0  0
  6 32  1  0  0  0  0
  7  8  1  0  0  0  0
  8 33  1  0  0  0  0
  8 34  1  0  0  0  0
  8 35  1  0  0  0  0
  9 10  1  0  0  0  0
  9 19  1  0  0  0  0
 10 11  2  0  0  0  0
 10 17  1  0  0  0  0
 11 12  1  0  0  0  0
 12 13  2  0  0  0  0
 12 14  1  0  0  0  0
 14 15  1  0  0  0  0
 14 36  1  0  0  0  0
 15 16  2  0  0  0  0
 15 17  1  0  0  0  0
 17 18  2  0  0  0  0
 19 20  1  0  0  0  0
 19 37  1  0  0  0  0
 19 38  1  0  0  0  0
 20 21  1  0  0  0  0
 20 27  1  0  0  0  0
 20 39  1  0  0  0  0
 21 22  1  0  0  0  0
 21 26  1  0  0  0  0
 21 40  1  0  0  0  0
 22 23  1  0  0  0  0
 22 25  1  0  0  0  0
 22 41  1  0  0  0  0
 23 24  1  0  0  0  0
 23 42  1  0  0  0  0
 23 43  1  0  0  0  0
 24 44  1  0  0  0  0
 25 45  1  0  0  0  0
 26 46  1  0  0  0  0
 27 47  1  0  0  0  0
M  END
$$$$
Target_lig_505
 OpenBabel05122505463D

 52 54  0  0  1  0  0  0  0  0999 V2000
    0.9050   -0.2599   -0.0924 C   0  0  0  0  0  0  0  0  0  0  0  0
    2.3871   -0.0098   -0.2114 C   0  0  0  0  0  0  0  0  0  0  0  0
    3.2130   -1.1396   -0.0627 C   0  0  0  0  0  0  0  0  0  0  0  0
    4.5987   -1.0653   -0.1632 C   0  0  0  0  0  0  0  0  0  0  0  0
    5.2186    0.1760   -0.3875 C   0  0  0  0  0  0  0  0  0  0  0  0
    4.3716    1.2757   -0.6572 C   0  0  0  0  0  0  0  0  0  0  0  0
    2.9590    1.2468   -0.5100 C   0  0  0  0  0  0  0  0  0  0  0  0
    2.1798    2.3911   -0.7044 N   0  0  0  0  0  0  0  0  0  0  0  0
    2.6680    3.5189   -1.5025 C   0  0  0  0  0  0  0  0  0  0  0  0
    1.2429    2.8142    0.3452 C   0  0  0  0  0  0  0  0  0  0  0  0
    6.6275    0.2516   -0.2847 N   0  0  0  0  0  0  0  0  0  0  0  0
    7.3593   -0.9377   -0.1895 C   0  0  0  0  0  0  0  0  0  0  0  0
    8.6580   -0.9766   -0.1799 N   0  0  0  0  0  0  0  0  0  0  0  0
    9.3702   -2.1382   -0.0782 C   0  0  0  0  0  0  0  0  0  0  0  0
   10.5947   -2.1333    0.0059 O   0  0  0  0  0  0  0  0  0  0  0  0
    8.7260   -3.3427   -0.0537 N   0  0  0  0  0  0  0  0  0  0  0  0
    7.3807   -3.5229   -0.0127 C   0  0  0  0  0  0  0  0  0  0  0  0
    6.8414   -4.6103    0.0925 O   0  0  0  0  0  0  0  0  0  0  0  0
    6.5987   -2.2366   -0.0818 C   0  0  0  0  0  0  0  0  0  0  0  0
    5.3024   -2.2711   -0.0413 N   0  0  0  0  0  0  0  0  0  0  0  0
    7.3461    1.5290   -0.1418 C   0  0  0  0  0  0  0  0  0  0  0  0
    6.8101    2.5655    0.8689 C   0  0  3  0  0  0  0  0  0  0  0  0
    6.5670    2.1211    2.3281 C   0  0  3  0  0  0  0  0  0  0  0  0
    6.0024    3.2833    3.1864 C   0  0  3  0  0  0  0  0  0  0  0  0
    4.6698    3.8606    2.6819 C   0  0  0  0  0  0  0  0  0  0  0  0
    4.2193    4.8871    3.5658 O   0  0  0  0  0  0  0  0  0  0  0  0
    5.7788    2.8171    4.5324 O   0  0  0  0  0  0  0  0  0  0  0  0
    5.7150    0.9832    2.4882 O   0  0  0  0  0  0  0  0  0  0  0  0
    7.7153    3.6874    0.8783 O   0  0  0  0  0  0  0  0  0  0  0  0
    0.6719   -1.3231   -0.2218 H   0  0  0  0  0  0  0  0  0  0  0  0
    0.3481    0.2801   -0.8626 H   0  0  0  0  0  0  0  0  0  0  0  0
    0.5467    0.0141    0.9041 H   0  0  0  0  0  0  0  0  0  0  0  0
    2.7683   -2.1168    0.1289 H   0  0  0  0  0  0  0  0  0  0  0  0
    4.8250    2.1998   -0.9952 H   0  0  0  0  0  0  0  0  0  0  0  0
    3.3904    3.2276   -2.2701 H   0  0  0  0  0  0  0  0  0  0  0  0
    3.1159    4.2875   -0.8611 H   0  0  0  0  0  0  0  0  0  0  0  0
    1.8223    3.9759   -2.0300 H   0  0  0  0  0  0  0  0  0  0  0  0
    0.9040    2.0209    1.0089 H   0  0  0  0  0  0  0  0  0  0  0  0
    0.3530    3.2541   -0.1207 H   0  0  0  0  0  0  0  0  0  0  0  0
    1.7001    3.5786    0.9839 H   0  0  0  0  0  0  0  0  0  0  0  0
    9.3119   -4.1600    0.0404 H   0  0  0  0  0  0  0  0  0  0  0  0
    7.4330    1.9989   -1.1310 H   0  0  0  0  0  0  0  0  0  0  0  0
    8.3886    1.3458    0.1512 H   0  0  0  0  0  0  0  0  0  0  0  0
    5.8849    2.9737    0.4752 H   0  0  0  0  0  0  0  0  0  0  0  0
    7.5262    1.8235    2.7696 H   0  0  0  0  0  0  0  0  0  0  0  0
    6.7367    4.0930    3.2602 H   0  0  0  0  0  0  0  0  0  0  0  0
    3.8866    3.0971    2.6588 H   0  0  0  0  0  0  0  0  0  0  0  0
    4.7577    4.3050    1.6871 H   0  0  0  0  0  0  0  0  0  0  0  0
    4.4259    4.5630    4.4662 H   0  0  0  0  0  0  0  0  0  0  0  0
    5.5729    1.8631    4.4629 H   0  0  0  0  0  0  0  0  0  0  0  0
    4.8298    1.1778    2.1278 H   0  0  0  0  0  0  0  0  0  0  0  0
    8.5400    3.4159    1.3239 H   0  0  0  0  0  0  0  0  0  0  0  0
  1  2  1  0  0  0  0
  1 30  1  0  0  0  0
  1 31  1  0  0  0  0
  1 32  1  0  0  0  0
  2  3  2  0  0  0  0
  2  7  1  0  0  0  0
  3  4  1  0  0  0  0
  3 33  1  0  0  0  0
  4  5  2  0  0  0  0
  4 20  1  0  0  0  0
  5  6  1  0  0  0  0
  5 11  1  0  0  0  0
  6  7  2  0  0  0  0
  6 34  1  0  0  0  0
  7  8  1  0  0  0  0
  8  9  1  0  0  0  0
  8 10  1  0  0  0  0
  9 35  1  0  0  0  0
  9 36  1  0  0  0  0
  9 37  1  0  0  0  0
 10 38  1  0  0  0  0
 10 39  1  0  0  0  0
 10 40  1  0  0  0  0
 11 12  1  0  0  0  0
 11 21  1  0  0  0  0
 12 13  2  0  0  0  0
 12 19  1  0  0  0  0
 13 14  1  0  0  0  0
 14 15  2  0  0  0  0
 14 16  1  0  0  0  0
 16 17  1  0  0  0  0
 16 41  1  0  0  0  0
 17 18  2  0  0  0  0
 17 19  1  0  0  0  0
 19 20  2  0  0  0  0
 21 22  1  0  0  0  0
 21 42  1  0  0  0  0
 21 43  1  0  0  0  0
 22 23  1  0  0  0  0
 22 29  1  0  0  0  0
 22 44  1  0  0  0  0
 23 24  1  0  0  0  0
 23 28  1  0  0  0  0
 23 45  1  0  0  0  0
 24 25  1  0  0  0  0
 24 27  1  0  0  0  0
 24 46  1  0  0  0  0
 25 26  1  0  0  0  0
 25 47  1  0  0  0  0
 25 48  1  0  0  0  0
 26 49  1  0  0  0  0
 27 50  1  0  0  0  0
 28 51  1  0  0  0  0
 29 52  1  0  0  0  0
M  END
$$$$
Target_lig_57
 OpenBabel05122505463D

 29 28  0  0  1  0  0  0  0  0999 V2000
    1.0495    0.0402   -0.1623 C   0  0  0  0  0  0  0  0  0  0  0  0
    0.5634    0.5101   -1.5375 C   0  0  0  0  0  0  0  0  0  0  0  0
    1.0661   -0.3859   -2.6653 C   0  0  0  0  0  0  0  0  0  0  0  0
    0.5588    0.1154   -3.9402 N   0  0  0  0  0  0  0  0  0  0  0  0
    0.8782   -0.5508   -4.9892 C   0  0  0  0  0  0  0  0  0  0  0  0
    1.6372   -1.6652   -5.0848 N   0  0  0  0  0  0  0  0  0  0  0  0
    0.3963   -0.1733   -6.1899 N   0  0  0  0  0  0  0  0  0  0  0  0
    2.5750   -0.0134    0.0113 C   0  0  0  0  0  0  0  0  0  0  0  0
    3.2855    1.3286   -0.2122 C   0  0  1  0  0  0  0  0  0  0  0  0
    2.8380    2.3562    0.8411 C   0  0  0  0  0  0  0  0  0  0  0  0
    3.0385    2.2323    2.0425 O   0  0  0  0  0  0  0  0  0  0  0  0
    2.2330    3.4475    0.3208 O   0  0  0  0  0  0  0  0  0  0  0  0
    4.7477    1.1331   -0.1082 N   0  0  0  0  0  0  0  0  0  0  0  0
    0.6491   -0.9638    0.0280 H   0  0  0  0  0  0  0  0  0  0  0  0
    0.6161    0.6900    0.6072 H   0  0  0  0  0  0  0  0  0  0  0  0
    0.8644    1.5486   -1.7159 H   0  0  0  0  0  0  0  0  0  0  0  0
   -0.5342    0.5137   -1.5381 H   0  0  0  0  0  0  0  0  0  0  0  0
    0.7199   -1.4113   -2.4900 H   0  0  0  0  0  0  0  0  0  0  0  0
    2.1605   -0.3757   -2.6846 H   0  0  0  0  0  0  0  0  0  0  0  0
    2.1865   -1.9211   -4.2775 H   0  0  0  0  0  0  0  0  0  0  0  0
    2.1067   -1.8366   -5.9612 H   0  0  0  0  0  0  0  0  0  0  0  0
   -0.0440    0.7397   -6.1474 H   0  0  0  0  0  0  0  0  0  0  0  0
    0.9993   -0.2854   -6.9889 H   0  0  0  0  0  0  0  0  0  0  0  0
    2.9912   -0.7684   -0.6672 H   0  0  0  0  0  0  0  0  0  0  0  0
    2.7834   -0.3802    1.0251 H   0  0  0  0  0  0  0  0  0  0  0  0
    3.0854    1.7063   -1.2190 H   0  0  0  0  0  0  0  0  0  0  0  0
    2.1504    3.4417   -0.6522 H   0  0  0  0  0  0  0  0  0  0  0  0
    4.9501    0.7946    0.8378 H   0  0  0  0  0  0  0  0  0  0  0  0
    5.2116    2.0418   -0.1555 H   0  0  0  0  0  0  0  0  0  0  0  0
  1  2  1  0  0  0  0
  1  8  1  0  0  0  0
  1 14  1  0  0  0  0
  1 15  1  0  0  0  0
  2  3  1  0  0  0  0
  2 16  1  0  0  0  0
  2 17  1  0  0  0  0
  3  4  1  0  0  0  0
  3 18  1  0  0  0  0
  3 19  1  0  0  0  0
  4  5  2  0  0  0  0
  5  6  1  0  0  0  0
  5  7  1  0  0  0  0
  6 20  1  0  0  0  0
  6 21  1  0  0  0  0
  7 22  1  0  0  0  0
  7 23  1  0  0  0  0
  8  9  1  0  0  0  0
  8 24  1  0  0  0  0
  8 25  1  0  0  0  0
  9 10  1  0  0  0  0
  9 13  1  0  0  0  0
  9 26  1  6  0  0  0
 10 11  2  0  0  0  0
 10 12  1  0  0  0  0
 12 27  1  0  0  0  0
 13 28  1  0  0  0  0
 13 29  1  0  0  0  0
M  END
$$$$
Target_lig_506
 OpenBabel05122505463D

 22 21  0  0  1  0  0  0  0  0999 V2000
    0.9663    0.0917   -0.0803 C   0  0  0  0  0  0  0  0  0  0  0  0
    0.4454    1.1088    0.9423 C   0  0  0  0  0  0  0  0  0  0  0  0
   -0.9860    1.0552    0.9959 O   0  0  0  0  0  0  0  0  0  0  0  0
   -1.5041    2.0578    1.8809 C   0  0  0  0  0  0  0  0  0  0  0  0
   -3.0447    2.0551    1.8601 C   0  0  1  0  0  0  0  0  0  0  0  0
   -3.5616    3.0467    2.9115 C   0  0  0  0  0  0  0  0  0  0  0  0
   -2.8655    3.7542    3.6208 O   0  0  0  0  0  0  0  0  0  0  0  0
   -4.9193    3.0754    2.9794 O   0  0  0  0  0  0  0  0  0  0  0  0
   -3.5857    2.3960    0.5206 N   0  0  0  0  0  0  0  0  0  0  0  0
    0.5305    0.4199   -1.4399 N   0  0  0  0  0  0  0  0  0  0  0  0
    0.5944   -0.9071    0.1707 H   0  0  0  0  0  0  0  0  0  0  0  0
    2.0609    0.0721   -0.0541 H   0  0  0  0  0  0  0  0  0  0  0  0
    0.7730    2.1192    0.6698 H   0  0  0  0  0  0  0  0  0  0  0  0
    0.8445    0.8624    1.9325 H   0  0  0  0  0  0  0  0  0  0  0  0
   -1.1215    3.0441    1.5885 H   0  0  0  0  0  0  0  0  0  0  0  0
   -1.1460    1.8397    2.8951 H   0  0  0  0  0  0  0  0  0  0  0  0
   -3.3981    1.0539    2.1305 H   0  0  0  0  0  0  0  0  0  0  0  0
   -5.3382    2.4184    2.3919 H   0  0  0  0  0  0  0  0  0  0  0  0
   -3.1986    3.2928    0.2222 H   0  0  0  0  0  0  0  0  0  0  0  0
   -4.5945    2.4910    0.5070 H   0  0  0  0  0  0  0  0  0  0  0  0
   -0.4923    0.4653   -1.4292 H   0  0  0  0  0  0  0  0  0  0  0  0
    0.7773   -0.3435   -2.0669 H   0  0  0  0  0  0  0  0  0  0  0  0
  1  2  1  0  0  0  0
  1 10  1  0  0  0  0
  1 11  1  0  0  0  0
  1 12  1  0  0  0  0
  2  3  1  0  0  0  0
  2 13  1  0  0  0  0
  2 14  1  0  0  0  0
  3  4  1  0  0  0  0
  4  5  1  0  0  0  0
  4 15  1  0  0  0  0
  4 16  1  0  0  0  0
  5  6  1  0  0  0  0
  5  9  1  0  0  0  0
  5 17  1  1  0  0  0
  6  7  2  0  0  0  0
  6  8  1  0  0  0  0
  8 18  1  0  0  0  0
  9 19  1  0  0  0  0
  9 20  1  0  0  0  0
 10 21  1  0  0  0  0
 10 22  1  0  0  0  0
M  END
$$$$
Target_lig_507
 OpenBabel05122505463D

 20 20  0  0  1  0  0  0  0  0999 V2000
    2.2475   -1.2607   -0.5392 C   0  0  0  0  0  0  0  0  0  0  0  0
    2.5120    0.1755   -0.1091 C   0  0  0  0  0  0  0  0  0  0  0  0
    2.8585    1.0516   -1.2724 C   0  0  3  0  0  0  0  0  0  0  0  0
    3.0933    2.5205   -1.0311 C   0  0  0  0  0  0  0  0  0  0  0  0
    1.9451    2.0818   -1.9135 C   0  0  3  0  0  0  0  0  0  0  0  0
    2.0589    2.3341   -3.4055 C   0  0  0  0  0  0  0  0  0  0  0  0
    2.9211    1.8342   -4.1120 O   0  0  0  0  0  0  0  0  0  0  0  0
    1.1019    3.1853   -3.8472 O   0  0  0  0  0  0  0  0  0  0  0  0
    0.5671    2.3601   -1.4017 N   0  0  0  0  0  0  0  0  0  0  0  0
    2.2283   -1.9208    0.3322 H   0  0  0  0  0  0  0  0  0  0  0  0
    3.0237   -1.6252   -1.2211 H   0  0  0  0  0  0  0  0  0  0  0  0
    1.2839   -1.3427   -1.0532 H   0  0  0  0  0  0  0  0  0  0  0  0
    3.3645    0.1750    0.5806 H   0  0  0  0  0  0  0  0  0  0  0  0
    1.6521    0.5525    0.4539 H   0  0  0  0  0  0  0  0  0  0  0  0
    3.5893    0.5665   -1.9170 H   0  0  0  0  0  0  0  0  0  0  0  0
    3.9589    2.9729   -1.5046 H   0  0  0  0  0  0  0  0  0  0  0  0
    2.8777    2.9253   -0.0499 H   0  0  0  0  0  0  0  0  0  0  0  0
    0.5552    3.4070   -3.0590 H   0  0  0  0  0  0  0  0  0  0  0  0
    0.5555    2.3107   -0.3814 H   0  0  0  0  0  0  0  0  0  0  0  0
   -0.0610    1.6115   -1.7057 H   0  0  0  0  0  0  0  0  0  0  0  0
  1  2  1  0  0  0  0
  1 10  1  0  0  0  0
  1 11  1  0  0  0  0
  1 12  1  0  0  0  0
  2  3  1  0  0  0  0
  2 13  1  0  0  0  0
  2 14  1  0  0  0  0
  3  4  1  0  0  0  0
  3  5  1  0  0  0  0
  3 15  1  0  0  0  0
  4  5  1  0  0  0  0
  4 16  1  0  0  0  0
  4 17  1  0  0  0  0
  5  6  1  0  0  0  0
  5  9  1  0  0  0  0
  6  7  2  0  0  0  0
  6  8  1  0  0  0  0
  8 18  1  0  0  0  0
  9 19  1  0  0  0  0
  9 20  1  0  0  0  0
M  END
$$$$
Target_lig_508
 OpenBabel05122505463D

 25 24  0  0  1  0  0  0  0  0999 V2000
    1.0518    2.3903    0.6229 C   0  0  0  0  0  0  0  0  0  0  0  0
    0.5281    1.4614   -0.4627 C   0  0  0  0  0  0  0  0  0  0  0  0
   -1.2341    1.2820   -0.4029 S   0  0  0  0  0  0  0  0  0  0  0  0
   -1.6071    0.3605   -1.4501 O   0  0  0  0  0  0  0  0  0  0  0  0
   -1.4902    0.9965    0.9951 O   0  0  0  0  0  0  0  0  0  0  0  0
   -1.8773    2.8961   -0.8584 C   0  0  0  0  0  0  0  0  0  0  0  0
   -3.3909    2.9449   -0.6950 C   0  0  1  0  0  0  0  0  0  0  0  0
   -3.6839    2.7194    0.8125 C   0  0  0  0  0  0  0  0  0  0  0  0
   -2.9941    3.5076    1.5321 O   0  0  0  0  0  0  0  0  0  0  0  0
   -4.6411    1.9613    1.0581 O   0  5  0  0  0  0  0  0  0  0  0  0
   -3.8878    4.3362   -1.0826 N   0  3  0  0  0  0  0  0  0  0  0  0
    0.7170    1.9415    1.9995 N   0  3  0  0  0  0  0  0  0  0  0  0
    0.6543    3.4030    0.5211 H   0  0  0  0  0  0  0  0  0  0  0  0
    2.1437    2.4477    0.5751 H   0  0  0  0  0  0  0  0  0  0  0  0
    0.9466    0.4564   -0.3379 H   0  0  0  0  0  0  0  0  0  0  0  0
    0.7928    1.8196   -1.4617 H   0  0  0  0  0  0  0  0  0  0  0  0
   -1.5882    3.0700   -1.9000 H   0  0  0  0  0  0  0  0  0  0  0  0
   -1.3734    3.6449   -0.2419 H   0  0  0  0  0  0  0  0  0  0  0  0
   -3.9076    2.2342   -1.3478 H   0  0  0  0  0  0  0  0  0  0  0  0
   -3.5739    4.9826   -0.3365 H   0  0  0  0  0  0  0  0  0  0  0  0
   -4.9156    4.3270   -0.9916 H   0  0  0  0  0  0  0  0  0  0  0  0
   -3.6296    4.6755   -2.0112 H   0  0  0  0  0  0  0  0  0  0  0  0
   -0.3110    1.7607    2.1098 H   0  0  0  0  0  0  0  0  0  0  0  0
    0.9534    2.6390    2.7186 H   0  0  0  0  0  0  0  0  0  0  0  0
    1.1653    1.0547    2.2663 H   0  0  0  0  0  0  0  0  0  0  0  0
  1  2  1  0  0  0  0
  1 12  1  0  0  0  0
  1 13  1  0  0  0  0
  1 14  1  0  0  0  0
  2  3  1  0  0  0  0
  2 15  1  0  0  0  0
  2 16  1  0  0  0  0
  3  4  2  0  0  0  0
  3  5  2  0  0  0  0
  3  6  1  0  0  0  0
  6  7  1  0  0  0  0
  6 17  1  0  0  0  0
  6 18  1  0  0  0  0
  7  8  1  0  0  0  0
  7 11  1  0  0  0  0
  7 19  1  6  0  0  0
  8  9  2  0  0  0  0
  8 10  1  0  0  0  0
 11 20  1  0  0  0  0
 11 21  1  0  0  0  0
 11 22  1  0  0  0  0
 12 23  1  0  0  0  0
 12 24  1  0  0  0  0
 12 25  1  0  0  0  0
M  CHG  3  10  -1  11   1  12   1
M  END
$$$$
Target_lig_509
 OpenBabel05122505463D

 23 22  0  0  1  0  0  0  0  0999 V2000
    1.0935   -0.0216    0.0625 C   0  0  0  0  0  0  0  0  0  0  0  0
    0.4990   -0.8016   -1.0867 C   0  0  0  0  0  0  0  0  0  0  0  0
   -0.2912   -1.8855   -0.9944 C   0  0  0  0  0  0  0  0  0  0  0  0
   -0.8403   -2.6709   -2.1448 C   0  0  0  0  0  0  0  0  0  0  0  0
   -0.4118   -2.1747   -3.4667 N   0  3  0  0  0  0  0  0  0  0  0  0
    2.6342   -0.0138    0.0819 C   0  0  3  0  0  0  0  0  0  0  0  0
    3.1103    0.6311   -1.2528 C   0  0  0  0  0  0  0  0  0  0  0  0
    3.3513    1.8644   -1.0859 O   0  0  0  0  0  0  0  0  0  0  0  0
    3.1722   -0.1272   -2.2502 O   0  5  0  0  0  0  0  0  0  0  0  0
    3.1059    0.8269    1.2500 N   0  3  0  0  0  0  0  0  0  0  0  0
    0.7180   -0.4157    1.0156 H   0  0  0  0  0  0  0  0  0  0  0  0
    0.7171    1.0075   -0.0179 H   0  0  0  0  0  0  0  0  0  0  0  0
    0.7741   -0.4048   -2.0645 H   0  0  0  0  0  0  0  0  0  0  0  0
   -0.5652   -2.2529   -0.0074 H   0  0  0  0  0  0  0  0  0  0  0  0
   -1.9336   -2.6422   -2.1351 H   0  0  0  0  0  0  0  0  0  0  0  0
   -0.5117   -3.7127   -2.0818 H   0  0  0  0  0  0  0  0  0  0  0  0
   -0.7053   -1.1991   -3.6056 H   0  0  0  0  0  0  0  0  0  0  0  0
   -0.7959   -2.7328   -4.2359 H   0  0  0  0  0  0  0  0  0  0  0  0
    0.6181   -2.1862   -3.5467 H   0  0  0  0  0  0  0  0  0  0  0  0
    3.0554   -1.0127    0.2212 H   0  0  0  0  0  0  0  0  0  0  0  0
    2.8703    1.8036    0.9869 H   0  0  0  0  0  0  0  0  0  0  0  0
    4.1336    0.8463    1.2413 H   0  0  0  0  0  0  0  0  0  0  0  0
    2.7434    0.5903    2.1785 H   0  0  0  0  0  0  0  0  0  0  0  0
  1  2  1  0  0  0  0
  1  6  1  0  0  0  0
  1 11  1  0  0  0  0
  1 12  1  0  0  0  0
  2  3  2  0  0  0  0
  2 13  1  0  0  0  0
  3  4  1  0  0  0  0
  3 14  1  0  0  0  0
  4  5  1  0  0  0  0
  4 15  1  0  0  0  0
  4 16  1  0  0  0  0
  5 17  1  0  0  0  0
  5 18  1  0  0  0  0
  5 19  1  0  0  0  0
  6  7  1  0  0  0  0
  6 10  1  0  0  0  0
  6 20  1  0  0  0  0
  7  8  2  0  0  0  0
  7  9  1  0  0  0  0
 10 21  1  0  0  0  0
 10 22  1  0  0  0  0
 10 23  1  0  0  0  0
M  CHG  3   5   1   9  -1  10   1
M  END
$$$$
Target_lig_662
 OpenBabel05122505463D

 49 52  0  0  1  0  0  0  0  0999 V2000
    1.6907   -0.4418    0.4285 C   0  0  0  0  0  0  0  0  0  0  0  0
    3.0649   -0.6141   -0.2367 C   0  0  3  0  0  0  0  0  0  0  0  0
    3.4308    0.5400   -1.1963 C   0  0  0  0  0  0  0  0  0  0  0  0
    2.4395    0.6883   -2.3603 C   0  0  0  0  0  0  0  0  0  0  0  0
    2.8111    1.7887   -3.2525 N   0  0  0  0  0  0  0  0  0  0  0  0
    2.4518    3.1195   -2.9642 C   0  0  0  0  0  0  0  0  0  0  0  0
    1.7344    3.4924   -1.8155 C   0  0  0  0  0  0  0  0  0  0  0  0
    1.4257    4.8320   -1.5154 C   0  0  0  0  0  0  0  0  0  0  0  0
    0.7172    5.1277   -0.2231 C   0  0  0  0  0  0  0  0  0  0  0  0
    1.8037    5.8395   -2.4144 C   0  0  0  0  0  0  0  0  0  0  0  0
    1.4961    7.2947   -2.1973 C   0  0  0  0  0  0  0  0  0  0  0  0
    2.4983    5.4763   -3.5806 C   0  0  0  0  0  0  0  0  0  0  0  0
    2.8306    4.1416   -3.8598 C   0  0  0  0  0  0  0  0  0  0  0  0
    3.5358    3.8919   -5.0522 N   0  0  0  0  0  0  0  0  0  0  0  0
    3.8726    2.6609   -5.3315 C   0  0  0  0  0  0  0  0  0  0  0  0
    4.6095    2.3384   -6.5997 C   0  0  0  0  0  0  0  0  0  0  0  0
    4.8513    3.2541   -7.3814 O   0  0  0  0  0  0  0  0  0  0  0  0
    4.9466    1.0673   -6.7820 N   0  5  0  0  0  0  0  0  0  0  0  0
    4.6333    0.1096   -5.9108 C   0  0  0  0  0  0  0  0  0  0  0  0
    4.9624   -1.0548   -6.1257 O   0  0  0  0  0  0  0  0  0  0  0  0
    3.9324    0.3481   -4.7529 N   0  0  0  0  0  0  0  0  0  0  0  0
    3.5359    1.5265   -4.4119 C   0  0  0  0  0  0  0  0  0  0  0  0
    4.1276   -0.7978    0.8418 C   0  0  0  0  0  0  0  0  0  0  0  0
    4.8819   -1.9817    0.8904 C   0  0  0  0  0  0  0  0  0  0  0  0
    5.8170   -2.1856    1.9081 C   0  0  0  0  0  0  0  0  0  0  0  0
    6.0049   -1.2060    2.8749 C   0  0  0  0  0  0  0  0  0  0  0  0
    6.8890   -1.4097    3.8610 F   0  0  0  0  0  0  0  0  0  0  0  0
    5.2861   -0.0190    2.8367 C   0  0  0  0  0  0  0  0  0  0  0  0
    4.3526    0.1869    1.8204 C   0  0  0  0  0  0  0  0  0  0  0  0
    0.8825   -0.4186   -0.3069 H   0  0  0  0  0  0  0  0  0  0  0  0
    1.6325    0.4804    1.0172 H   0  0  0  0  0  0  0  0  0  0  0  0
    1.4827   -1.2790    1.1058 H   0  0  0  0  0  0  0  0  0  0  0  0
    3.0156   -1.5358   -0.8324 H   0  0  0  0  0  0  0  0  0  0  0  0
    4.4331    0.3566   -1.6079 H   0  0  0  0  0  0  0  0  0  0  0  0
    3.5065    1.4829   -0.6416 H   0  0  0  0  0  0  0  0  0  0  0  0
    1.4151    0.8290   -2.0032 H   0  0  0  0  0  0  0  0  0  0  0  0
    2.3996   -0.2583   -2.9132 H   0  0  0  0  0  0  0  0  0  0  0  0
    1.4066    2.7357   -1.1108 H   0  0  0  0  0  0  0  0  0  0  0  0
    0.5673    4.2180    0.3693 H   0  0  0  0  0  0  0  0  0  0  0  0
   -0.2671    5.5652   -0.4132 H   0  0  0  0  0  0  0  0  0  0  0  0
    1.3181    5.8091    0.3876 H   0  0  0  0  0  0  0  0  0  0  0  0
    1.0019    7.4850   -1.2410 H   0  0  0  0  0  0  0  0  0  0  0  0
    0.8318    7.6592   -2.9876 H   0  0  0  0  0  0  0  0  0  0  0  0
    2.4209    7.8807   -2.2067 H   0  0  0  0  0  0  0  0  0  0  0  0
    2.8035    6.2376   -4.2975 H   0  0  0  0  0  0  0  0  0  0  0  0
    4.7442   -2.7550    0.1370 H   0  0  0  0  0  0  0  0  0  0  0  0
    6.3963   -3.1019    1.9516 H   0  0  0  0  0  0  0  0  0  0  0  0
    5.4525    0.7371    3.5964 H   0  0  0  0  0  0  0  0  0  0  0  0
    3.7951    1.1204    1.8021 H   0  0  0  0  0  0  0  0  0  0  0  0
  1  2  1  0  0  0  0
  1 30  1  0  0  0  0
  1 31  1  0  0  0  0
  1 32  1  0  0  0  0
  2  3  1  0  0  0  0
  2 23  1  0  0  0  0
  2 33  1  0  0  0  0
  3  4  1  0  0  0  0
  3 34  1  0  0  0  0
  3 35  1  0  0  0  0
  4  5  1  0  0  0  0
  4 36  1  0  0  0  0
  4 37  1  0  0  0  0
  5  6  1  0  0  0  0
  5 22  1  0  0  0  0
  6  7  2  0  0  0  0
  6 13  1  0  0  0  0
  7  8  1  0  0  0  0
  7 38  1  0  0  0  0
  8  9  1  0  0  0  0
  8 10  2  0  0  0  0
  9 39  1  0  0  0  0
  9 40  1  0  0  0  0
  9 41  1  0  0  0  0
 10 11  1  0  0  0  0
 10 12  1  0  0  0  0
 11 42  1  0  0  0  0
 11 43  1  0  0  0  0
 11 44  1  0  0  0  0
 12 13  2  0  0  0  0
 12 45  1  0  0  0  0
 13 14  1  0  0  0  0
 14 15  2  0  0  0  0
 15 16  1  0  0  0  0
 15 22  1  0  0  0  0
 16 17  2  0  0  0  0
 16 18  1  0  0  0  0
 18 19  1  0  0  0  0
 19 20  2  0  0  0  0
 19 21  1  0  0  0  0
 21 22  2  0  0  0  0
 23 24  2  0  0  0  0
 23 29  1  0  0  0  0
 24 25  1  0  0  0  0
 24 46  1  0  0  0  0
 25 26  2  0  0  0  0
 25 47  1  0  0  0  0
 26 27  1  0  0  0  0
 26 28  1  0  0  0  0
 28 29  2  0  0  0  0
 28 48  1  0  0  0  0
 29 49  1  0  0  0  0
M  CHG  1  18  -1
M  END
$$$$
Target_lig_663
 OpenBabel05122505463D

 49 52  0  0  1  0  0  0  0  0999 V2000
    3.0740    2.5561    0.4914 C   0  0  0  0  0  0  0  0  0  0  0  0
    2.8885    1.1539    0.1809 N   0  0  0  0  0  0  0  0  0  0  0  0
    3.4880    0.7781   -1.0136 C   0  0  0  0  0  0  0  0  0  0  0  0
    4.5716    1.4386   -1.4500 N   0  0  0  0  0  0  0  0  0  0  0  0
    5.0765    1.0737   -2.6379 C   0  0  0  0  0  0  0  0  0  0  0  0
    4.5623    0.0601   -3.4154 C   0  0  0  0  0  0  0  0  0  0  0  0
    3.4586   -0.5626   -2.8730 C   0  0  0  0  0  0  0  0  0  0  0  0
    2.9023   -0.2175   -1.6913 N   0  0  0  0  0  0  0  0  0  0  0  0
    5.1820   -0.3226   -4.7238 C   0  0  0  0  0  0  0  0  0  0  0  0
    6.2517   -1.3277   -4.6683 N   0  0  0  0  0  0  0  0  0  0  0  0
    7.3997   -0.9392   -3.8492 C   0  0  0  0  0  0  0  0  0  0  0  0
    8.5035   -1.9955   -3.7832 C   0  0  0  0  0  0  0  0  0  0  0  0
    7.9389   -3.3692   -3.4445 C   0  0  0  0  0  0  0  0  0  0  0  0
    6.8499   -3.7584   -4.4504 C   0  0  1  0  0  0  0  0  0  0  0  0
    5.7489   -2.6865   -4.4383 C   0  0  0  0  0  0  0  0  0  0  0  0
    7.4185   -4.0223   -5.8459 C   0  0  0  0  0  0  0  0  0  0  0  0
    7.0083   -3.3771   -6.8891 N   0  0  0  0  0  0  0  0  0  0  0  0
    7.5818   -3.6779   -8.0993 C   0  0  0  0  0  0  0  0  0  0  0  0
    8.5789   -4.5554   -8.2614 C   0  0  0  0  0  0  0  0  0  0  0  0
    9.0300   -5.2866   -7.0753 C   0  0  0  0  0  0  0  0  0  0  0  0
    9.9329   -6.1165   -7.1355 O   0  0  0  0  0  0  0  0  0  0  0  0
    8.3815   -4.9920   -5.9184 N   0  0  0  0  0  0  0  0  0  0  0  0
    7.0133   -2.9819   -9.2177 C   0  0  0  0  0  0  0  0  0  0  0  0
    6.4804   -1.6980   -9.2596 C   0  0  0  0  0  0  0  0  0  0  0  0
    5.9204   -1.3563  -10.5256 C   0  0  0  0  0  0  0  0  0  0  0  0
    6.0325   -2.3855  -11.4289 C   0  0  0  0  0  0  0  0  0  0  0  0
    6.8189   -3.7419  -10.7606 S   0  0  0  0  0  0  0  0  0  0  0  0
    2.5065    2.8126    1.3901 H   0  0  0  0  0  0  0  0  0  0  0  0
    2.7201    3.1989   -0.3234 H   0  0  0  0  0  0  0  0  0  0  0  0
    4.1267    2.7830    0.6972 H   0  0  0  0  0  0  0  0  0  0  0  0
    1.9295    0.8333    0.1288 H   0  0  0  0  0  0  0  0  0  0  0  0
    5.9500    1.6370   -2.9465 H   0  0  0  0  0  0  0  0  0  0  0  0
    2.9665   -1.3859   -3.3811 H   0  0  0  0  0  0  0  0  0  0  0  0
    5.5798    0.5834   -5.2014 H   0  0  0  0  0  0  0  0  0  0  0  0
    4.3925   -0.6581   -5.4103 H   0  0  0  0  0  0  0  0  0  0  0  0
    7.0978   -0.7225   -2.8202 H   0  0  0  0  0  0  0  0  0  0  0  0
    7.8393   -0.0225   -4.2631 H   0  0  0  0  0  0  0  0  0  0  0  0
    9.2338   -1.7056   -3.0183 H   0  0  0  0  0  0  0  0  0  0  0  0
    9.0441   -2.0372   -4.7360 H   0  0  0  0  0  0  0  0  0  0  0  0
    7.5044   -3.3439   -2.4361 H   0  0  0  0  0  0  0  0  0  0  0  0
    8.7485   -4.1054   -3.4138 H   0  0  0  0  0  0  0  0  0  0  0  0
    6.4054   -4.7076   -4.1214 H   0  0  0  0  0  0  0  0  0  0  0  0
    5.2358   -2.7418   -3.4704 H   0  0  0  0  0  0  0  0  0  0  0  0
    5.0024   -2.9344   -5.2043 H   0  0  0  0  0  0  0  0  0  0  0  0
    9.0578   -4.7910   -9.2006 H   0  0  0  0  0  0  0  0  0  0  0  0
    8.6809   -5.5073   -5.1033 H   0  0  0  0  0  0  0  0  0  0  0  0
    6.4829   -1.0395   -8.3987 H   0  0  0  0  0  0  0  0  0  0  0  0
    5.4466   -0.4100  -10.7557 H   0  0  0  0  0  0  0  0  0  0  0  0
    5.6853   -2.4129  -12.4523 H   0  0  0  0  0  0  0  0  0  0  0  0
  1  2  1  0  0  0  0
  1 28  1  0  0  0  0
  1 29  1  0  0  0  0
  1 30  1  0  0  0  0
  2  3  1  0  0  0  0
  2 31  1  0  0  0  0
  3  4  2  0  0  0  0
  3  8  1  0  0  0  0
  4  5  1  0  0  0  0
  5  6  2  0  0  0  0
  5 32  1  0  0  0  0
  6  7  1  0  0  0  0
  6  9  1  0  0  0  0
  7  8  2  0  0  0  0
  7 33  1  0  0  0  0
  9 10  1  0  0  0  0
  9 34  1  0  0  0  0
  9 35  1  0  0  0  0
 10 11  1  0  0  0  0
 10 15  1  0  0  0  0
 11 12  1  0  0  0  0
 11 36  1  0  0  0  0
 11 37  1  0  0  0  0
 12 13  1  0  0  0  0
 12 38  1  0  0  0  0
 12 39  1  0  0  0  0
 13 14  1  0  0  0  0
 13 40  1  0  0  0  0
 13 41  1  0  0  0  0
 14 15  1  0  0  0  0
 14 16  1  0  0  0  0
 14 42  1  1  0  0  0
 15 43  1  0  0  0  0
 15 44  1  0  0  0  0
 16 17  2  0  0  0  0
 16 22  1  0  0  0  0
 17 18  1  0  0  0  0
 18 19  2  0  0  0  0
 18 23  1  0  0  0  0
 19 20  1  0  0  0  0
 19 45  1  0  0  0  0
 20 21  2  0  0  0  0
 20 22  1  0  0  0  0
 22 46  1  0  0  0  0
 23 24  2  0  0  0  0
 23 27  1  0  0  0  0
 24 25  1  0  0  0  0
 24 47  1  0  0  0  0
 25 26  2  0  0  0  0
 25 48  1  0  0  0  0
 26 27  1  0  0  0  0
 26 49  1  0  0  0  0
M  END
$$$$
Target_lig_664
 OpenBabel05122505463D

 51 55  0  0  1  0  0  0  0  0999 V2000
   -0.6915    1.3354    0.2248 C   0  0  0  0  0  0  0  0  0  0  0  0
   -1.5307    0.1145   -0.1445 C   0  0  0  0  0  0  0  0  0  0  0  0
   -0.8242   -1.1887    0.2574 C   0  0  1  0  0  0  0  0  0  0  0  0
    0.5858   -1.2071   -0.3543 C   0  0  0  0  0  0  0  0  0  0  0  0
    1.3640   -0.0267    0.0379 N   0  0  0  0  0  0  0  0  0  0  0  0
    0.7296    1.2370   -0.3342 C   0  0  0  0  0  0  0  0  0  0  0  0
    2.7768   -0.1043   -0.3573 C   0  0  0  0  0  0  0  0  0  0  0  0
    2.9741   -0.0718   -1.8401 C   0  0  0  0  0  0  0  0  0  0  0  0
    3.0647   -1.1321   -2.7177 C   0  0  0  0  0  0  0  0  0  0  0  0
    3.2448   -0.5769   -3.9628 N   0  0  0  0  0  0  0  0  0  0  0  0
    3.2220    0.7844   -3.7892 C   0  0  0  0  0  0  0  0  0  0  0  0
    3.0767    1.1211   -2.5256 N   0  0  0  0  0  0  0  0  0  0  0  0
    3.4305   -1.2706   -5.1822 C   0  0  0  0  0  0  0  0  0  0  0  0
    3.3906   -2.6193   -5.1485 N   0  0  0  0  0  0  0  0  0  0  0  0
    3.5989   -3.2567   -6.3118 C   0  0  0  0  0  0  0  0  0  0  0  0
    3.8488   -2.6042   -7.4962 C   0  0  0  0  0  0  0  0  0  0  0  0
    3.8703   -1.2321   -7.4286 C   0  0  0  0  0  0  0  0  0  0  0  0
    3.6599   -0.5385   -6.2951 N   0  0  0  0  0  0  0  0  0  0  0  0
   -0.8086   -1.4069    1.7722 C   0  0  0  0  0  0  0  0  0  0  0  0
    0.2948   -1.5706    2.4278 N   0  0  0  0  0  0  0  0  0  0  0  0
    0.2231   -1.7328    3.7871 C   0  0  0  0  0  0  0  0  0  0  0  0
   -0.9187   -1.7190    4.4847 C   0  0  0  0  0  0  0  0  0  0  0  0
   -2.1664   -1.5691    3.7315 C   0  0  0  0  0  0  0  0  0  0  0  0
   -3.2575   -1.5762    4.2886 O   0  0  0  0  0  0  0  0  0  0  0  0
   -2.0315   -1.4366    2.3842 N   0  0  0  0  0  0  0  0  0  0  0  0
    1.4926   -1.9073    4.4335 C   0  0  0  0  0  0  0  0  0  0  0  0
    2.7258   -1.3725    4.0756 C   0  0  0  0  0  0  0  0  0  0  0  0
    3.7928   -1.7817    4.9263 C   0  0  0  0  0  0  0  0  0  0  0  0
    3.3621   -2.6381    5.9105 C   0  0  0  0  0  0  0  0  0  0  0  0
    1.6877   -2.9417    5.8072 S   0  0  0  0  0  0  0  0  0  0  0  0
   -0.6565    1.4418    1.3159 H   0  0  0  0  0  0  0  0  0  0  0  0
   -1.1715    2.2397   -0.1671 H   0  0  0  0  0  0  0  0  0  0  0  0
   -1.6888    0.1099   -1.2316 H   0  0  0  0  0  0  0  0  0  0  0  0
   -2.5224    0.1984    0.3114 H   0  0  0  0  0  0  0  0  0  0  0  0
   -1.3943   -2.0286   -0.1624 H   0  0  0  0  0  0  0  0  0  0  0  0
    0.4841   -1.2568   -1.4461 H   0  0  0  0  0  0  0  0  0  0  0  0
    1.1019   -2.1240   -0.0421 H   0  0  0  0  0  0  0  0  0  0  0  0
    0.6836    1.3579   -1.4221 H   0  0  0  0  0  0  0  0  0  0  0  0
    1.3104    2.0757    0.0687 H   0  0  0  0  0  0  0  0  0  0  0  0
    3.2225   -1.0203    0.0526 H   0  0  0  0  0  0  0  0  0  0  0  0
    3.3341    0.7208    0.1028 H   0  0  0  0  0  0  0  0  0  0  0  0
    3.0192   -2.2019   -2.5687 H   0  0  0  0  0  0  0  0  0  0  0  0
    3.3145    1.4748   -4.6172 H   0  0  0  0  0  0  0  0  0  0  0  0
    3.5584   -4.3408   -6.2635 H   0  0  0  0  0  0  0  0  0  0  0  0
    4.0197   -3.1376   -8.4203 H   0  0  0  0  0  0  0  0  0  0  0  0
    4.0683   -0.6295   -8.3114 H   0  0  0  0  0  0  0  0  0  0  0  0
   -0.9946   -1.8171    5.5565 H   0  0  0  0  0  0  0  0  0  0  0  0
   -2.8893   -1.3428    1.8614 H   0  0  0  0  0  0  0  0  0  0  0  0
    2.8455   -0.7044    3.2292 H   0  0  0  0  0  0  0  0  0  0  0  0
    4.8249   -1.4699    4.8158 H   0  0  0  0  0  0  0  0  0  0  0  0
    3.9499   -3.1097    6.6853 H   0  0  0  0  0  0  0  0  0  0  0  0
  1  2  1  0  0  0  0
  1  6  1  0  0  0  0
  1 31  1  0  0  0  0
  1 32  1  0  0  0  0
  2  3  1  0  0  0  0
  2 33  1  0  0  0  0
  2 34  1  0  0  0  0
  3  4  1  0  0  0  0
  3 19  1  0  0  0  0
  3 35  1  6  0  0  0
  4  5  1  0  0  0  0
  4 36  1  0  0  0  0
  4 37  1  0  0  0  0
  5  6  1  0  0  0  0
  5  7  1  0  0  0  0
  6 38  1  0  0  0  0
  6 39  1  0  0  0  0
  7  8  1  0  0  0  0
  7 40  1  0  0  0  0
  7 41  1  0  0  0  0
  8  9  2  0  0  0  0
  8 12  1  0  0  0  0
  9 10  1  0  0  0  0
  9 42  1  0  0  0  0
 10 11  1  0  0  0  0
 10 13  1  0  0  0  0
 11 12  2  0  0  0  0
 11 43  1  0  0  0  0
 13 14  2  0  0  0  0
 13 18  1  0  0  0  0
 14 15  1  0  0  0  0
 15 16  2  0  0  0  0
 15 44  1  0  0  0  0
 16 17  1  0  0  0  0
 16 45  1  0  0  0  0
 17 18  2  0  0  0  0
 17 46  1  0  0  0  0
 19 20  2  0  0  0  0
 19 25  1  0  0  0  0
 20 21  1  0  0  0  0
 21 22  2  0  0  0  0
 21 26  1  0  0  0  0
 22 23  1  0  0  0  0
 22 47  1  0  0  0  0
 23 24  2  0  0  0  0
 23 25  1  0  0  0  0
 25 48  1  0  0  0  0
 26 27  2  0  0  0  0
 26 30  1  0  0  0  0
 27 28  1  0  0  0  0
 27 49  1  0  0  0  0
 28 29  2  0  0  0  0
 28 50  1  0  0  0  0
 29 30  1  0  0  0  0
 29 51  1  0  0  0  0
M  END
$$$$
Target_lig_1254
 OpenBabel05122505463D

 17 18  0  0  0  0  0  0  0  0999 V2000
    1.2754   -0.0548    0.2625 N   0  0  0  0  0  0  0  0  0  0  0  0
    2.6557   -0.0433    0.1849 C   0  0  0  0  0  0  0  0  0  0  0  0
    3.2666   -1.2431    0.1967 N   0  0  0  0  0  0  0  0  0  0  0  0
    4.6099   -1.2992    0.1704 C   0  0  0  0  0  0  0  0  0  0  0  0
    5.2260   -2.5375    0.2183 N   0  0  0  0  0  0  0  0  0  0  0  0
    5.2845   -0.1027    0.1017 C   0  0  0  0  0  0  0  0  0  0  0  0
    6.5979    0.2710    0.0900 N   0  0  0  0  0  0  0  0  0  0  0  0
    6.6386    1.6360    0.0200 C   0  0  0  0  0  0  0  0  0  0  0  0
    5.4306    2.1563   -0.0164 N   0  0  0  0  0  0  0  0  0  0  0  0
    4.5806    1.0844    0.0541 C   0  0  0  0  0  0  0  0  0  0  0  0
    3.2406    1.1493    0.0817 N   0  0  0  0  0  0  0  0  0  0  0  0
    0.9091   -0.9314   -0.0775 H   0  0  0  0  0  0  0  0  0  0  0  0
    0.8980    0.8006   -0.1204 H   0  0  0  0  0  0  0  0  0  0  0  0
    4.5567   -3.2782    0.0360 H   0  0  0  0  0  0  0  0  0  0  0  0
    6.1179   -2.6260   -0.2427 H   0  0  0  0  0  0  0  0  0  0  0  0
    7.3949   -0.3469    0.1503 H   0  0  0  0  0  0  0  0  0  0  0  0
    7.5671    2.1915    0.0046 H   0  0  0  0  0  0  0  0  0  0  0  0
  1  2  1  0  0  0  0
  1 12  1  0  0  0  0
  1 13  1  0  0  0  0
  2  3  2  0  0  0  0
  2 11  1  0  0  0  0
  3  4  1  0  0  0  0
  4  5  1  0  0  0  0
  4  6  2  0  0  0  0
  5 14  1  0  0  0  0
  5 15  1  0  0  0  0
  6  7  1  0  0  0  0
  6 10  1  0  0  0  0
  7  8  1  0  0  0  0
  7 16  1  0  0  0  0
  8  9  2  0  0  0  0
  8 17  1  0  0  0  0
  9 10  1  0  0  0  0
 10 11  2  0  0  0  0
M  END
$$$$
Target_lig_665
 OpenBabel05122505463D

 18 19  0  0  0  0  0  0  0  0999 V2000
   -2.2615   -0.1356   -0.0566 C   0  0  0  0  0  0  0  0  0  0  0  0
   -1.4590   -1.1759   -0.0891 N   0  0  0  0  0  0  0  0  0  0  0  0
   -0.1957   -0.6528   -0.0118 C   0  0  0  0  0  0  0  0  0  0  0  0
   -0.2326    0.7266    0.0392 C   0  0  0  0  0  0  0  0  0  0  0  0
   -1.5633    1.0391    0.0146 N   0  0  0  0  0  0  0  0  0  0  0  0
    0.9418    1.4436    0.1247 C   0  0  0  0  0  0  0  0  0  0  0  0
    2.0886    0.7269    0.1749 N   0  0  0  0  0  0  0  0  0  0  0  0
    2.0344   -0.6150    0.1374 C   0  0  0  0  0  0  0  0  0  0  0  0
    0.9400   -1.3642    0.0218 N   0  0  0  0  0  0  0  0  0  0  0  0
    3.2436   -1.2839    0.1947 N   0  0  0  0  0  0  0  0  0  0  0  0
    0.9971    2.8412    0.1908 N   0  0  0  0  0  0  0  0  0  0  0  0
    2.2361    3.4630    0.0087 O   0  0  0  0  0  0  0  0  0  0  0  0
   -3.3433   -0.1703   -0.0756 H   0  0  0  0  0  0  0  0  0  0  0  0
   -1.9668    1.9633    0.0708 H   0  0  0  0  0  0  0  0  0  0  0  0
    3.9858   -0.7016   -0.1644 H   0  0  0  0  0  0  0  0  0  0  0  0
    3.1419   -2.2091   -0.1989 H   0  0  0  0  0  0  0  0  0  0  0  0
    0.2389    3.3161   -0.2871 H   0  0  0  0  0  0  0  0  0  0  0  0
    2.8685    2.7837    0.3290 H   0  0  0  0  0  0  0  0  0  0  0  0
  1  2  2  0  0  0  0
  1  5  1  0  0  0  0
  1 13  1  0  0  0  0
  2  3  1  0  0  0  0
  3  4  2  0  0  0  0
  3  9  1  0  0  0  0
  4  5  1  0  0  0  0
  4  6  1  0  0  0  0
  5 14  1  0  0  0  0
  6  7  2  0  0  0  0
  6 11  1  0  0  0  0
  7  8  1  0  0  0  0
  8  9  2  0  0  0  0
  8 10  1  0  0  0  0
 10 15  1  0  0  0  0
 10 16  1  0  0  0  0
 11 12  1  0  0  0  0
 11 17  1  0  0  0  0
 12 18  1  0  0  0  0
M  END
$$$$
Target_lig_1255
 OpenBabel05122505463D

 17 17  0  0  0  0  0  0  0  0999 V2000
    1.1424    0.1003    0.1431 N   0  0  0  0  0  0  0  0  0  0  0  0
    2.4895    0.0247    0.0179 C   0  0  0  0  0  0  0  0  0  0  0  0
    3.0833   -1.1127   -0.1111 N   0  0  0  0  0  0  0  0  0  0  0  0
    4.4592   -1.1139   -0.2080 C   0  0  0  0  0  0  0  0  0  0  0  0
    5.1236   -2.1474   -0.2841 O   0  0  0  0  0  0  0  0  0  0  0  0
    5.2086    0.2192   -0.1662 C   0  0  0  0  0  0  0  0  0  0  0  0
    6.6085    0.1965   -0.2238 N   0  0  0  0  0  0  0  0  0  0  0  0
    4.4645    1.3394   -0.0177 C   0  0  0  0  0  0  0  0  0  0  0  0
    5.0613    2.5866    0.0585 N   0  0  0  0  0  0  0  0  0  0  0  0
    3.1056    1.2308    0.0341 N   0  0  0  0  0  0  0  0  0  0  0  0
    0.7129   -0.8002   -0.0459 H   0  0  0  0  0  0  0  0  0  0  0  0
    0.7069    0.8325   -0.4043 H   0  0  0  0  0  0  0  0  0  0  0  0
    6.9255   -0.7644   -0.0584 H   0  0  0  0  0  0  0  0  0  0  0  0
    6.9998    0.8322    0.4674 H   0  0  0  0  0  0  0  0  0  0  0  0
    5.9863    2.5582   -0.3740 H   0  0  0  0  0  0  0  0  0  0  0  0
    4.4886    3.2997   -0.3830 H   0  0  0  0  0  0  0  0  0  0  0  0
    2.6179    2.0175    0.4368 H   0  0  0  0  0  0  0  0  0  0  0  0
  1  2  1  0  0  0  0
  1 11  1  0  0  0  0
  1 12  1  0  0  0  0
  2  3  2  0  0  0  0
  2 10  1  0  0  0  0
  3  4  1  0  0  0  0
  4  5  2  0  0  0  0
  4  6  1  0  0  0  0
  6  7  1  0  0  0  0
  6  8  2  0  0  0  0
  7 13  1  0  0  0  0
  7 14  1  0  0  0  0
  8  9  1  0  0  0  0
  8 10  1  0  0  0  0
  9 15  1  0  0  0  0
  9 16  1  0  0  0  0
 10 17  1  0  0  0  0
M  END
$$$$
Target_lig_666
 OpenBabel05122505463D

 44 48  0  0  0  0  0  0  0  0999 V2000
    0.9632   -0.2048   -0.0968 C   0  0  0  0  0  0  0  0  0  0  0  0
    2.4357   -0.0801    0.0365 N   0  3  0  0  0  0  0  0  0  0  0  0
    3.0657    1.1335    0.0769 C   0  0  0  0  0  0  0  0  0  0  0  0
    4.3990    1.1896   -0.4092 C   0  0  0  0  0  0  0  0  0  0  0  0
    5.1406   -0.0286   -0.5560 C   0  0  0  0  0  0  0  0  0  0  0  0
    6.5165   -0.0840   -0.8624 C   0  0  0  0  0  0  0  0  0  0  0  0
    7.2192   -1.2930   -0.9220 C   0  0  0  0  0  0  0  0  0  0  0  0
    6.5810   -2.5105   -0.6934 C   0  0  0  0  0  0  0  0  0  0  0  0
    5.2030   -2.5009   -0.4157 C   0  0  0  0  0  0  0  0  0  0  0  0
    4.4962   -1.2619   -0.3457 C   0  0  0  0  0  0  0  0  0  0  0  0
    3.1292   -1.2294   -0.1023 C   0  0  0  0  0  0  0  0  0  0  0  0
    4.4032   -3.5991   -0.1767 O   0  0  0  0  0  0  0  0  0  0  0  0
    4.9692   -4.9062   -0.1914 C   0  0  0  0  0  0  0  0  0  0  0  0
    7.2343   -3.7085   -0.7202 O   0  0  0  0  0  0  0  0  0  0  0  0
    8.6304   -3.7325   -0.9901 C   0  0  0  0  0  0  0  0  0  0  0  0
    4.9216    2.4747   -0.7017 C   0  0  0  0  0  0  0  0  0  0  0  0
    4.1910    3.6425   -0.4578 C   0  0  0  0  0  0  0  0  0  0  0  0
    2.9729    3.5936    0.2157 C   0  0  0  0  0  0  0  0  0  0  0  0
    2.3120    4.7854    0.5776 C   0  0  0  0  0  0  0  0  0  0  0  0
    1.1841    4.7026    1.3625 C   0  0  0  0  0  0  0  0  0  0  0  0
    0.7232    3.4977    1.8094 C   0  0  0  0  0  0  0  0  0  0  0  0
    1.3262    2.3146    1.4510 C   0  0  0  0  0  0  0  0  0  0  0  0
    2.4319    2.3228    0.5655 C   0  0  0  0  0  0  0  0  0  0  0  0
   -0.3557    3.6101    2.6243 O   0  0  0  0  0  0  0  0  0  0  0  0
   -0.5331    5.0443    2.6376 C   0  0  0  0  0  0  0  0  0  0  0  0
    0.4379    5.7392    1.8226 O   0  0  0  0  0  0  0  0  0  0  0  0
    0.4962    0.7556   -0.3250 H   0  0  0  0  0  0  0  0  0  0  0  0
    0.5722   -0.6407    0.8254 H   0  0  0  0  0  0  0  0  0  0  0  0
    0.7568   -0.8593   -0.9501 H   0  0  0  0  0  0  0  0  0  0  0  0
    7.0962    0.8223   -1.0270 H   0  0  0  0  0  0  0  0  0  0  0  0
    8.2831   -1.2396   -1.1388 H   0  0  0  0  0  0  0  0  0  0  0  0
    2.5408   -2.1427   -0.0391 H   0  0  0  0  0  0  0  0  0  0  0  0
    4.1672   -5.6164    0.0338 H   0  0  0  0  0  0  0  0  0  0  0  0
    5.7247   -5.0220    0.5920 H   0  0  0  0  0  0  0  0  0  0  0  0
    5.3525   -5.1596   -1.1847 H   0  0  0  0  0  0  0  0  0  0  0  0
    8.9597   -4.7749   -0.9364 H   0  0  0  0  0  0  0  0  0  0  0  0
    9.1906   -3.1688   -0.2374 H   0  0  0  0  0  0  0  0  0  0  0  0
    8.8380   -3.3677   -2.0007 H   0  0  0  0  0  0  0  0  0  0  0  0
    5.9039    2.5944   -1.1515 H   0  0  0  0  0  0  0  0  0  0  0  0
    4.6335    4.6008   -0.7353 H   0  0  0  0  0  0  0  0  0  0  0  0
    2.6870    5.7618    0.2810 H   0  0  0  0  0  0  0  0  0  0  0  0
    0.9527    1.4064    1.9115 H   0  0  0  0  0  0  0  0  0  0  0  0
   -0.4451    5.3971    3.6714 H   0  0  0  0  0  0  0  0  0  0  0  0
   -1.5393    5.2717    2.2673 H   0  0  0  0  0  0  0  0  0  0  0  0
  1  2  1  0  0  0  0
  1 27  1  0  0  0  0
  1 28  1  0  0  0  0
  1 29  1  0  0  0  0
  2  3  2  0  0  0  0
  2 11  1  0  0  0  0
  3  4  1  0  0  0  0
  3 23  1  0  0  0  0
  4  5  2  0  0  0  0
  4 16  1  0  0  0  0
  5  6  1  0  0  0  0
  5 10  1  0  0  0  0
  6  7  2  0  0  0  0
  6 30  1  0  0  0  0
  7  8  1  0  0  0  0
  7 31  1  0  0  0  0
  8  9  2  0  0  0  0
  8 14  1  0  0  0  0
  9 10  1  0  0  0  0
  9 12  1  0  0  0  0
 10 11  2  0  0  0  0
 11 32  1  0  0  0  0
 12 13  1  0  0  0  0
 13 33  1  0  0  0  0
 13 34  1  0  0  0  0
 13 35  1  0  0  0  0
 14 15  1  0  0  0  0
 15 36  1  0  0  0  0
 15 37  1  0  0  0  0
 15 38  1  0  0  0  0
 16 17  2  0  0  0  0
 16 39  1  0  0  0  0
 17 18  1  0  0  0  0
 17 40  1  0  0  0  0
 18 19  2  0  0  0  0
 18 23  1  0  0  0  0
 19 20  1  0  0  0  0
 19 41  1  0  0  0  0
 20 21  2  0  0  0  0
 20 26  1  0  0  0  0
 21 22  1  0  0  0  0
 21 24  1  0  0  0  0
 22 23  2  0  0  0  0
 22 42  1  0  0  0  0
 24 25  1  0  0  0  0
 25 26  1  0  0  0  0
 25 43  1  0  0  0  0
 25 44  1  0  0  0  0
M  CHG  1   2   1
M  END
$$$$
Target_lig_667
 OpenBabel05122505463D

 74 77  0  0  0  0  0  0  0  0999 V2000
   -0.0597    7.0145   -2.5300 C   0  0  0  0  0  0  0  0  0  0  0  0
    0.4012    6.2043   -3.7186 C   0  0  0  0  0  0  0  0  0  0  0  0
    0.5950    4.8445   -3.7180 N   0  3  0  0  0  0  0  0  0  0  0  0
    1.0662    4.1946   -4.8385 C   0  0  0  0  0  0  0  0  0  0  0  0
    1.2942    2.7935   -4.8640 C   0  0  0  0  0  0  0  0  0  0  0  0
    1.8393    2.1540   -5.9737 C   0  0  0  0  0  0  0  0  0  0  0  0
    2.1711    2.8906   -7.0914 C   0  0  0  0  0  0  0  0  0  0  0  0
    1.9385    4.2640   -7.1084 C   0  0  0  0  0  0  0  0  0  0  0  0
    1.3758    4.9465   -6.0072 C   0  0  0  0  0  0  0  0  0  0  0  0
    1.1145    6.3286   -6.0365 C   0  0  0  0  0  0  0  0  0  0  0  0
    0.6772    6.9373   -4.8747 C   0  0  0  0  0  0  0  0  0  0  0  0
    1.5030    7.1582   -7.0958 N   0  0  0  0  0  0  0  0  0  0  0  0
    0.3820    4.0570   -2.4783 C   0  0  0  0  0  0  0  0  0  0  0  0
   -0.9848    3.3769   -2.5028 C   0  0  0  0  0  0  0  0  0  0  0  0
   -1.1867    2.5141   -1.2521 C   0  0  0  0  0  0  0  0  0  0  0  0
   -1.0397    3.3128    0.0460 C   0  0  0  0  0  0  0  0  0  0  0  0
   -2.0109    4.4944    0.1083 C   0  0  0  0  0  0  0  0  0  0  0  0
   -3.4689    4.0411    0.0956 C   0  0  0  0  0  0  0  0  0  0  0  0
   -3.8264    3.2161    1.3329 C   0  0  0  0  0  0  0  0  0  0  0  0
   -3.6840    4.0233    2.6268 C   0  0  0  0  0  0  0  0  0  0  0  0
   -4.5447    5.2908    2.6309 C   0  0  0  0  0  0  0  0  0  0  0  0
   -6.0172    4.9488    2.4119 C   0  0  0  0  0  0  0  0  0  0  0  0
   -6.8526    6.1734    2.4791 N   0  3  0  0  0  0  0  0  0  0  0  0
   -7.2614    6.7901    1.3269 C   0  0  0  0  0  0  0  0  0  0  0  0
   -8.1118    7.8958    1.3981 C   0  0  0  0  0  0  0  0  0  0  0  0
   -8.5381    8.4076    2.6093 C   0  0  0  0  0  0  0  0  0  0  0  0
   -8.1657    7.7311    3.7848 C   0  0  0  0  0  0  0  0  0  0  0  0
   -8.6555    8.1115    5.0533 C   0  0  0  0  0  0  0  0  0  0  0  0
   -8.2739    7.4552    6.2214 C   0  0  0  0  0  0  0  0  0  0  0  0
   -7.3794    6.4027    6.1585 C   0  0  0  0  0  0  0  0  0  0  0  0
   -6.8852    5.9957    4.9202 C   0  0  0  0  0  0  0  0  0  0  0  0
   -7.2801    6.6211    3.7099 C   0  0  0  0  0  0  0  0  0  0  0  0
   -9.4979    9.4265    2.5833 N   0  0  0  0  0  0  0  0  0  0  0  0
   -6.9066    6.3431   -0.0734 C   0  0  0  0  0  0  0  0  0  0  0  0
   -0.3143    6.4472   -1.6399 H   0  0  0  0  0  0  0  0  0  0  0  0
   -0.9547    7.5854   -2.8023 H   0  0  0  0  0  0  0  0  0  0  0  0
    0.7279    7.7227   -2.2502 H   0  0  0  0  0  0  0  0  0  0  0  0
    1.0559    2.1431   -4.0301 H   0  0  0  0  0  0  0  0  0  0  0  0
    2.0114    1.0740   -5.9581 H   0  0  0  0  0  0  0  0  0  0  0  0
    2.6194    2.4034   -7.9553 H   0  0  0  0  0  0  0  0  0  0  0  0
    2.2236    4.7991   -8.0149 H   0  0  0  0  0  0  0  0  0  0  0  0
    0.5500    8.0192   -4.8534 H   0  0  0  0  0  0  0  0  0  0  0  0
    1.5161    6.7420   -8.0168 H   0  0  0  0  0  0  0  0  0  0  0  0
    1.0747    8.0835   -7.1364 H   0  0  0  0  0  0  0  0  0  0  0  0
    0.5127    4.7164   -1.6234 H   0  0  0  0  0  0  0  0  0  0  0  0
    1.1952    3.3339   -2.3663 H   0  0  0  0  0  0  0  0  0  0  0  0
   -1.1026    2.7384   -3.3839 H   0  0  0  0  0  0  0  0  0  0  0  0
   -1.7829    4.1253   -2.5945 H   0  0  0  0  0  0  0  0  0  0  0  0
   -0.4605    1.6931   -1.2497 H   0  0  0  0  0  0  0  0  0  0  0  0
   -2.1715    2.0344   -1.2968 H   0  0  0  0  0  0  0  0  0  0  0  0
   -0.0161    3.6810    0.1565 H   0  0  0  0  0  0  0  0  0  0  0  0
   -1.1848    2.6450    0.9015 H   0  0  0  0  0  0  0  0  0  0  0  0
   -1.8564    5.1755   -0.7318 H   0  0  0  0  0  0  0  0  0  0  0  0
   -1.7919    5.1002    0.9934 H   0  0  0  0  0  0  0  0  0  0  0  0
   -3.6969    3.4635   -0.8060 H   0  0  0  0  0  0  0  0  0  0  0  0
   -4.1013    4.9281    0.0177 H   0  0  0  0  0  0  0  0  0  0  0  0
   -3.2041    2.3177    1.3957 H   0  0  0  0  0  0  0  0  0  0  0  0
   -4.8471    2.8344    1.2304 H   0  0  0  0  0  0  0  0  0  0  0  0
   -2.6350    4.2967    2.7924 H   0  0  0  0  0  0  0  0  0  0  0  0
   -3.9588    3.3879    3.4763 H   0  0  0  0  0  0  0  0  0  0  0  0
   -4.2006    6.0008    1.8687 H   0  0  0  0  0  0  0  0  0  0  0  0
   -4.3911    5.8093    3.5831 H   0  0  0  0  0  0  0  0  0  0  0  0
   -6.3808    4.2239    3.1462 H   0  0  0  0  0  0  0  0  0  0  0  0
   -6.2023    4.4569    1.4585 H   0  0  0  0  0  0  0  0  0  0  0  0
   -8.4644    8.3552    0.4747 H   0  0  0  0  0  0  0  0  0  0  0  0
   -9.3660    8.9271    5.1586 H   0  0  0  0  0  0  0  0  0  0  0  0
   -8.6806    7.7679    7.1806 H   0  0  0  0  0  0  0  0  0  0  0  0
   -7.0717    5.8924    7.0691 H   0  0  0  0  0  0  0  0  0  0  0  0
   -6.1859    5.1655    4.9570 H   0  0  0  0  0  0  0  0  0  0  0  0
   -9.5265    9.9978    1.7411 H   0  0  0  0  0  0  0  0  0  0  0  0
   -9.5657   10.0092    3.4114 H   0  0  0  0  0  0  0  0  0  0  0  0
   -6.1607    5.5576   -0.1362 H   0  0  0  0  0  0  0  0  0  0  0  0
   -6.5088    7.1920   -0.6414 H   0  0  0  0  0  0  0  0  0  0  0  0
   -7.8110    5.9855   -0.5782 H   0  0  0  0  0  0  0  0  0  0  0  0
  1  2  1  0  0  0  0
  1 35  1  0  0  0  0
  1 36  1  0  0  0  0
  1 37  1  0  0  0  0
  2  3  2  0  0  0  0
  2 11  1  0  0  0  0
  3  4  1  0  0  0  0
  3 13  1  0  0  0  0
  4  5  2  0  0  0  0
  4  9  1  0  0  0  0
  5  6  1  0  0  0  0
  5 38  1  0  0  0  0
  6  7  2  0  0  0  0
  6 39  1  0  0  0  0
  7  8  1  0  0  0  0
  7 40  1  0  0  0  0
  8  9  2  0  0  0  0
  8 41  1  0  0  0  0
  9 10  1  0  0  0  0
 10 11  2  0  0  0  0
 10 12  1  0  0  0  0
 11 42  1  0  0  0  0
 12 43  1  0  0  0  0
 12 44  1  0  0  0  0
 13 14  1  0  0  0  0
 13 45  1  0  0  0  0
 13 46  1  0  0  0  0
 14 15  1  0  0  0  0
 14 47  1  0  0  0  0
 14 48  1  0  0  0  0
 15 16  1  0  0  0  0
 15 49  1  0  0  0  0
 15 50  1  0  0  0  0
 16 17  1  0  0  0  0
 16 51  1  0  0  0  0
 16 52  1  0  0  0  0
 17 18  1  0  0  0  0
 17 53  1  0  0  0  0
 17 54  1  0  0  0  0
 18 19  1  0  0  0  0
 18 55  1  0  0  0  0
 18 56  1  0  0  0  0
 19 20  1  0  0  0  0
 19 57  1  0  0  0  0
 19 58  1  0  0  0  0
 20 21  1  0  0  0  0
 20 59  1  0  0  0  0
 20 60  1  0  0  0  0
 21 22  1  0  0  0  0
 21 61  1  0  0  0  0
 21 62  1  0  0  0  0
 22 23  1  0  0  0  0
 22 63  1  0  0  0  0
 22 64  1  0  0  0  0
 23 24  2  0  0  0  0
 23 32  1  0  0  0  0
 24 25  1  0  0  0  0
 24 34  1  0  0  0  0
 25 26  2  0  0  0  0
 25 65  1  0  0  0  0
 26 27  1  0  0  0  0
 26 33  1  0  0  0  0
 27 28  2  0  0  0  0
 27 32  1  0  0  0  0
 28 29  1  0  0  0  0
 28 66  1  0  0  0  0
 29 30  2  0  0  0  0
 29 67  1  0  0  0  0
 30 31  1  0  0  0  0
 30 68  1  0  0  0  0
 31 32  2  0  0  0  0
 31 69  1  0  0  0  0
 33 70  1  0  0  0  0
 33 71  1  0  0  0  0
 34 72  1  0  0  0  0
 34 73  1  0  0  0  0
 34 74  1  0  0  0  0
M  CHG  2   3   1  23   1
M  END
$$$$
Target_lig_668
 OpenBabel05122505463D

 24 26  0  0  0  0  0  0  0  0999 V2000
    0.9623    0.0118    0.0646 C   0  0  0  0  0  0  0  0  0  0  0  0
    2.4576    0.0594    0.0648 C   0  0  0  0  0  0  0  0  0  0  0  0
    3.1419   -1.1158    0.0637 N   0  0  0  0  0  0  0  0  0  0  0  0
    4.4933   -1.1033    0.0636 C   0  0  0  0  0  0  0  0  0  0  0  0
    5.2748    0.0410    0.0641 C   0  0  0  0  0  0  0  0  0  0  0  0
    4.5920    1.2655    0.0648 C   0  0  0  0  0  0  0  0  0  0  0  0
    3.1983    1.2451    0.0650 C   0  0  0  0  0  0  0  0  0  0  0  0
    2.7783    2.5539    0.0657 N   0  0  0  0  0  0  0  0  0  0  0  0
    3.8452    3.4176    0.0655 C   0  0  0  0  0  0  0  0  0  0  0  0
    3.8701    4.8165    0.0652 C   0  0  0  0  0  0  0  0  0  0  0  0
    5.1199    5.4399    0.0649 C   0  0  0  0  0  0  0  0  0  0  0  0
    6.2945    4.6912    0.0650 C   0  0  0  0  0  0  0  0  0  0  0  0
    6.2503    3.2916    0.0651 C   0  0  0  0  0  0  0  0  0  0  0  0
    5.0009    2.6381    0.0652 C   0  0  0  0  0  0  0  0  0  0  0  0
    0.5999   -1.0202    0.0649 H   0  0  0  0  0  0  0  0  0  0  0  0
    0.5726    0.5155   -0.8250 H   0  0  0  0  0  0  0  0  0  0  0  0
    0.5727    0.5155    0.9548 H   0  0  0  0  0  0  0  0  0  0  0  0
    4.9574   -2.0861    0.0632 H   0  0  0  0  0  0  0  0  0  0  0  0
    6.3557   -0.0152    0.0641 H   0  0  0  0  0  0  0  0  0  0  0  0
    1.8116    2.8438    0.0655 H   0  0  0  0  0  0  0  0  0  0  0  0
    2.9559    5.4021    0.0653 H   0  0  0  0  0  0  0  0  0  0  0  0
    5.1749    6.5261    0.0646 H   0  0  0  0  0  0  0  0  0  0  0  0
    7.2569    5.1975    0.0644 H   0  0  0  0  0  0  0  0  0  0  0  0
    7.1721    2.7176    0.0646 H   0  0  0  0  0  0  0  0  0  0  0  0
  1  2  1  0  0  0  0
  1 15  1  0  0  0  0
  1 16  1  0  0  0  0
  1 17  1  0  0  0  0
  2  3  2  0  0  0  0
  2  7  1  0  0  0  0
  3  4  1  0  0  0  0
  4  5  2  0  0  0  0
  4 18  1  0  0  0  0
  5  6  1  0  0  0  0
  5 19  1  0  0  0  0
  6  7  2  0  0  0  0
  6 14  1  0  0  0  0
  7  8  1  0  0  0  0
  8  9  1  0  0  0  0
  8 20  1  0  0  0  0
  9 10  2  0  0  0  0
  9 14  1  0  0  0  0
 10 11  1  0  0  0  0
 10 21  1  0  0  0  0
 11 12  2  0  0  0  0
 11 22  1  0  0  0  0
 12 13  1  0  0  0  0
 12 23  1  0  0  0  0
 13 14  2  0  0  0  0
 13 24  1  0  0  0  0
M  END
$$$$
Target_lig_336
 OpenBabel05122505473D

 27 29  0  0  0  0  0  0  0  0999 V2000
   -2.4374   -1.3968    0.0146 C   0  0  0  0  0  0  0  0  0  0  0  0
   -3.6318   -0.6798   -0.0153 C   0  0  0  0  0  0  0  0  0  0  0  0
   -3.6171    0.7130    0.0117 C   0  0  0  0  0  0  0  0  0  0  0  0
   -2.3805    1.3716   -0.0141 C   0  0  0  0  0  0  0  0  0  0  0  0
   -1.1689    0.6852    0.0135 C   0  0  0  0  0  0  0  0  0  0  0  0
   -0.0072    1.3697    0.0087 N   0  0  0  0  0  0  0  0  0  0  0  0
    1.1603    0.6949    0.0125 C   0  0  0  0  0  0  0  0  0  0  0  0
    1.2139   -0.7099    0.0301 C   0  0  0  0  0  0  0  0  0  0  0  0
    2.4490   -1.3756    0.0141 C   0  0  0  0  0  0  0  0  0  0  0  0
    3.6370   -0.6481   -0.0178 C   0  0  0  0  0  0  0  0  0  0  0  0
    3.6088    0.7446    0.0042 C   0  0  0  0  0  0  0  0  0  0  0  0
    2.3663    1.3909   -0.0194 C   0  0  0  0  0  0  0  0  0  0  0  0
    4.7912    1.4695   -0.1897 N   0  0  0  0  0  0  0  0  0  0  0  0
    0.0054   -1.4134    0.0393 C   0  0  0  0  0  0  0  0  0  0  0  0
   -1.2086   -0.7196    0.0300 C   0  0  0  0  0  0  0  0  0  0  0  0
   -4.8069    1.4272   -0.1770 N   0  0  0  0  0  0  0  0  0  0  0  0
   -2.4718   -2.4834    0.0036 H   0  0  0  0  0  0  0  0  0  0  0  0
   -4.5734   -1.2198   -0.0660 H   0  0  0  0  0  0  0  0  0  0  0  0
   -2.3494    2.4574   -0.0622 H   0  0  0  0  0  0  0  0  0  0  0  0
    2.4935   -2.4620    0.0069 H   0  0  0  0  0  0  0  0  0  0  0  0
    4.5835   -1.1796   -0.0681 H   0  0  0  0  0  0  0  0  0  0  0  0
    2.3254    2.4763   -0.0699 H   0  0  0  0  0  0  0  0  0  0  0  0
    5.6300    0.9967    0.1312 H   0  0  0  0  0  0  0  0  0  0  0  0
    4.7443    2.4342    0.1238 H   0  0  0  0  0  0  0  0  0  0  0  0
    0.0101   -2.4992    0.0355 H   0  0  0  0  0  0  0  0  0  0  0  0
   -5.6397    0.9450    0.1448 H   0  0  0  0  0  0  0  0  0  0  0  0
   -4.7682    2.3911    0.1411 H   0  0  0  0  0  0  0  0  0  0  0  0
  1  2  2  0  0  0  0
  1 15  1  0  0  0  0
  1 17  1  0  0  0  0
  2  3  1  0  0  0  0
  2 18  1  0  0  0  0
  3  4  2  0  0  0  0
  3 16  1  0  0  0  0
  4  5  1  0  0  0  0
  4 19  1  0  0  0  0
  5  6  2  0  0  0  0
  5 15  1  0  0  0  0
  6  7  1  0  0  0  0
  7  8  2  0  0  0  0
  7 12  1  0  0  0  0
  8  9  1  0  0  0  0
  8 14  1  0  0  0  0
  9 10  2  0  0  0  0
  9 20  1  0  0  0  0
 10 11  1  0  0  0  0
 10 21  1  0  0  0  0
 11 12  2  0  0  0  0
 11 13  1  0  0  0  0
 12 22  1  0  0  0  0
 13 23  1  0  0  0  0
 13 24  1  0  0  0  0
 14 15  2  0  0  0  0
 14 25  1  0  0  0  0
 16 26  1  0  0  0  0
 16 27  1  0  0  0  0
M  END
$$$$
Target_lig_669
 OpenBabel05122505473D

 61 68  0  0  1  0  0  0  0  0999 V2000
    2.6981    3.4767   -1.5637 C   0  0  0  0  0  0  0  0  0  0  0  0
    1.8312    3.1901   -0.2924 C   0  0  1  0  0  0  0  0  0  0  0  0
    2.1677    1.6120    0.0077 C   0  0  1  0  0  0  0  0  0  0  0  0
    2.0535    1.0642    1.5293 C   0  0  1  0  0  0  0  0  0  0  0  0
    1.1550    1.8853    2.4466 C   0  0  0  0  0  0  0  0  0  0  0  0
    0.4958    2.9096    1.5891 C   0  0  1  0  0  0  0  0  0  0  0  0
    1.7881    3.5783    1.0487 O   0  0  0  0  0  0  0  0  0  0  0  0
   -0.5614    2.3804    0.6054 N   0  0  0  0  0  0  0  0  0  0  0  0
   -1.7861    1.7724    0.9918 C   0  0  0  0  0  0  0  0  0  0  0  0
   -2.0666    1.1864    2.2286 C   0  0  0  0  0  0  0  0  0  0  0  0
   -2.6849    2.0804    3.1012 C   0  0  0  0  0  0  0  0  0  0  0  0
   -3.4503    3.1198    2.5864 C   0  0  0  0  0  0  0  0  0  0  0  0
   -3.6849    3.2734    1.1993 C   0  0  0  0  0  0  0  0  0  0  0  0
   -2.7872    2.6028    0.3232 C   0  0  0  0  0  0  0  0  0  0  0  0
   -2.3366    2.7780   -1.0534 C   0  0  0  0  0  0  0  0  0  0  0  0
   -2.9727    3.6963   -1.9728 C   0  0  0  0  0  0  0  0  0  0  0  0
   -2.2809    4.8818   -2.3168 C   0  0  0  0  0  0  0  0  0  0  0  0
   -0.9048    4.8328   -2.0103 C   0  0  0  0  0  0  0  0  0  0  0  0
   -0.2469    5.9607   -1.3513 C   0  0  0  0  0  0  0  0  0  0  0  0
   -0.0688    7.3590   -1.4028 C   0  0  0  0  0  0  0  0  0  0  0  0
    0.1820    8.0568   -0.1980 C   0  0  0  0  0  0  0  0  0  0  0  0
    0.0646    7.4050    1.0174 C   0  0  0  0  0  0  0  0  0  0  0  0
    0.1660    6.0274    1.0335 C   0  0  0  0  0  0  0  0  0  0  0  0
    0.3798    5.3795   -0.2046 C   0  0  0  0  0  0  0  0  0  0  0  0
    0.7742    4.0943   -0.6089 N   0  0  0  0  0  0  0  0  0  0  0  0
   -0.2833    3.7954   -1.3040 C   0  0  0  0  0  0  0  0  0  0  0  0
   -1.0080    2.8254   -0.6542 C   0  0  0  0  0  0  0  0  0  0  0  0
   -2.9325    5.6274   -3.3932 C   0  0  0  0  0  0  0  0  0  0  0  0
   -3.9798    4.6670   -3.7121 N   0  0  0  0  0  0  0  0  0  0  0  0
   -3.9597    3.4671   -2.9960 C   0  0  0  0  0  0  0  0  0  0  0  0
   -4.6046    2.4817   -3.3459 O   0  0  0  0  0  0  0  0  0  0  0  0
    1.7067   -0.3272    1.8191 N   0  0  0  0  0  0  0  0  0  0  0  0
    2.6289   -1.2915    1.2651 C   0  0  0  0  0  0  0  0  0  0  0  0
    2.0606    0.6305   -1.0216 O   0  0  0  0  0  0  0  0  0  0  0  0
    0.7682    0.1740   -1.3444 C   0  0  0  0  0  0  0  0  0  0  0  0
    2.8956    2.5456   -2.1213 H   0  0  0  0  0  0  0  0  0  0  0  0
    3.6242    4.0147   -1.4016 H   0  0  0  0  0  0  0  0  0  0  0  0
    2.1379    4.0100   -2.3602 H   0  0  0  0  0  0  0  0  0  0  0  0
    3.2707    1.7048    0.0019 H   0  0  0  0  0  0  0  0  0  0  0  0
    3.0622    1.2087    1.9558 H   0  0  0  0  0  0  0  0  0  0  0  0
    1.7991    2.4161    3.1702 H   0  0  0  0  0  0  0  0  0  0  0  0
    0.4600    1.3111    3.0625 H   0  0  0  0  0  0  0  0  0  0  0  0
   -0.0368    3.6132    2.2239 H   0  0  0  0  0  0  0  0  0  0  0  0
   -2.4690    0.1675    2.2782 H   0  0  0  0  0  0  0  0  0  0  0  0
   -2.5755    1.9223    4.1671 H   0  0  0  0  0  0  0  0  0  0  0  0
   -3.9302    3.7956    3.2881 H   0  0  0  0  0  0  0  0  0  0  0  0
   -4.3358    4.0417    0.8304 H   0  0  0  0  0  0  0  0  0  0  0  0
   -0.0404    7.8862   -2.3466 H   0  0  0  0  0  0  0  0  0  0  0  0
    0.4041    9.1185   -0.1960 H   0  0  0  0  0  0  0  0  0  0  0  0
   -0.0427    7.9462    1.9551 H   0  0  0  0  0  0  0  0  0  0  0  0
    0.0412    5.5109    1.9767 H   0  0  0  0  0  0  0  0  0  0  0  0
   -2.2634    5.7643   -4.2435 H   0  0  0  0  0  0  0  0  0  0  0  0
   -3.3893    6.5652   -3.0715 H   0  0  0  0  0  0  0  0  0  0  0  0
   -4.6767    4.8124   -4.4271 H   0  0  0  0  0  0  0  0  0  0  0  0
    0.7499   -0.5311    1.5385 H   0  0  0  0  0  0  0  0  0  0  0  0
    3.6604   -0.9270    1.2650 H   0  0  0  0  0  0  0  0  0  0  0  0
    2.3417   -1.5697    0.2505 H   0  0  0  0  0  0  0  0  0  0  0  0
    2.5953   -2.1929    1.8824 H   0  0  0  0  0  0  0  0  0  0  0  0
    0.1430    0.0315   -0.4638 H   0  0  0  0  0  0  0  0  0  0  0  0
    0.3061    0.8558   -2.0579 H   0  0  0  0  0  0  0  0  0  0  0  0
    0.8777   -0.7994   -1.8307 H   0  0  0  0  0  0  0  0  0  0  0  0
  1 36  1  0  0  0  0
  1 37  1  0  0  0  0
  1 38  1  0  0  0  0
  2  1  1  6  0  0  0
  2  3  1  0  0  0  0
  2  7  1  0  0  0  0
  2 25  1  0  0  0  0
  3  4  1  0  0  0  0
  3 34  1  0  0  0  0
  3 39  1  6  0  0  0
  4  5  1  0  0  0  0
  4 32  1  0  0  0  0
  4 40  1  1  0  0  0
  5  6  1  0  0  0  0
  5 41  1  0  0  0  0
  5 42  1  0  0  0  0
  6  7  1  0  0  0  0
  6  8  1  0  0  0  0
  6 43  1  1  0  0  0
  8  9  1  0  0  0  0
  8 27  1  0  0  0  0
  9 10  2  0  0  0  0
  9 14  1  0  0  0  0
 10 11  1  0  0  0  0
 10 44  1  0  0  0  0
 11 12  2  0  0  0  0
 11 45  1  0  0  0  0
 12 13  1  0  0  0  0
 12 46  1  0  0  0  0
 13 14  2  0  0  0  0
 13 47  1  0  0  0  0
 14 15  1  0  0  0  0
 15 16  2  0  0  0  0
 15 27  1  0  0  0  0
 16 17  1  0  0  0  0
 16 30  1  0  0  0  0
 17 18  2  0  0  0  0
 17 28  1  0  0  0  0
 18 19  1  0  0  0  0
 18 26  1  0  0  0  0
 19 20  2  0  0  0  0
 19 24  1  0  0  0  0
 20 21  1  0  0  0  0
 20 48  1  0  0  0  0
 21 22  2  0  0  0  0
 21 49  1  0  0  0  0
 22 23  1  0  0  0  0
 22 50  1  0  0  0  0
 23 24  2  0  0  0  0
 23 51  1  0  0  0  0
 24 25  1  0  0  0  0
 25 26  1  0  0  0  0
 26 27  2  0  0  0  0
 28 29  1  0  0  0  0
 28 52  1  0  0  0  0
 28 53  1  0  0  0  0
 29 30  1  0  0  0  0
 29 54  1  0  0  0  0
 30 31  2  0  0  0  0
 32 33  1  0  0  0  0
 32 55  1  0  0  0  0
 33 56  1  0  0  0  0
 33 57  1  0  0  0  0
 33 58  1  0  0  0  0
 34 35  1  0  0  0  0
 35 59  1  0  0  0  0
 35 60  1  0  0  0  0
 35 61  1  0  0  0  0
M  END
$$$$
Target_lig_714
 OpenBabel05122505473D

 32 34  0  0  0  0  0  0  0  0999 V2000
   -1.4230    0.3951   -0.2093 C   0  0  0  0  0  0  0  0  0  0  0  0
   -1.0686   -1.0064    0.2694 C   0  0  0  0  0  0  0  0  0  0  0  0
    0.3160   -1.4306   -0.2125 C   0  0  0  0  0  0  0  0  0  0  0  0
    1.4121   -0.4248    0.1822 C   0  0  0  0  0  0  0  0  0  0  0  0
    1.0264    0.9983   -0.2588 C   0  0  0  0  0  0  0  0  0  0  0  0
   -0.3651    1.4025    0.2251 C   0  0  0  0  0  0  0  0  0  0  0  0
    2.6880   -0.7869   -0.4613 N   0  0  0  0  0  0  0  0  0  0  0  0
    3.2916   -1.9883   -0.1705 C   0  0  0  0  0  0  0  0  0  0  0  0
    3.0895   -2.6062    0.9569 N   0  0  0  0  0  0  0  0  0  0  0  0
    3.7527   -3.8239    1.0826 C   0  0  0  0  0  0  0  0  0  0  0  0
    4.5092   -4.3477    0.0749 C   0  0  0  0  0  0  0  0  0  0  0  0
    4.7215   -3.6899   -1.1578 C   0  0  0  0  0  0  0  0  0  0  0  0
    5.3601   -4.1394   -2.1013 O   0  0  0  0  0  0  0  0  0  0  0  0
    4.1024   -2.4604   -1.1817 N   0  0  0  0  0  0  0  0  0  0  0  0
    4.9551   -5.5514    0.5363 N   0  0  0  0  0  0  0  0  0  0  0  0
    4.4722   -5.6841    1.8109 C   0  0  0  0  0  0  0  0  0  0  0  0
    3.7352   -4.6515    2.1650 N   0  0  0  0  0  0  0  0  0  0  0  0
   -2.4009    0.6866    0.1901 H   0  0  0  0  0  0  0  0  0  0  0  0
   -1.5098    0.3996   -1.3030 H   0  0  0  0  0  0  0  0  0  0  0  0
   -1.8177   -1.7200   -0.0919 H   0  0  0  0  0  0  0  0  0  0  0  0
   -1.1001   -1.0381    1.3655 H   0  0  0  0  0  0  0  0  0  0  0  0
    0.2980   -1.5525   -1.3035 H   0  0  0  0  0  0  0  0  0  0  0  0
    0.5376   -2.4204    0.2025 H   0  0  0  0  0  0  0  0  0  0  0  0
    1.5380   -0.4256    1.2725 H   0  0  0  0  0  0  0  0  0  0  0  0
    1.0601    1.0724   -1.3540 H   0  0  0  0  0  0  0  0  0  0  0  0
    1.7627    1.7176    0.1208 H   0  0  0  0  0  0  0  0  0  0  0  0
   -0.6196    2.3936   -0.1672 H   0  0  0  0  0  0  0  0  0  0  0  0
   -0.3643    1.4824    1.3191 H   0  0  0  0  0  0  0  0  0  0  0  0
    3.3597   -0.0335   -0.3251 H   0  0  0  0  0  0  0  0  0  0  0  0
    4.1540   -1.9436   -2.0439 H   0  0  0  0  0  0  0  0  0  0  0  0
    5.5298   -6.2139    0.0314 H   0  0  0  0  0  0  0  0  0  0  0  0
    4.6856   -6.5470    2.4273 H   0  0  0  0  0  0  0  0  0  0  0  0
  1  2  1  0  0  0  0
  1  6  1  0  0  0  0
  1 18  1  0  0  0  0
  1 19  1  0  0  0  0
  2  3  1  0  0  0  0
  2 20  1  0  0  0  0
  2 21  1  0  0  0  0
  3  4  1  0  0  0  0
  3 22  1  0  0  0  0
  3 23  1  0  0  0  0
  4  5  1  0  0  0  0
  4  7  1  0  0  0  0
  4 24  1  0  0  0  0
  5  6  1  0  0  0  0
  5 25  1  0  0  0  0
  5 26  1  0  0  0  0
  6 27  1  0  0  0  0
  6 28  1  0  0  0  0
  7  8  1  0  0  0  0
  7 29  1  0  0  0  0
  8  9  2  0  0  0  0
  8 14  1  0  0  0  0
  9 10  1  0  0  0  0
 10 11  2  0  0  0  0
 10 17  1  0  0  0  0
 11 12  1  0  0  0  0
 11 15  1  0  0  0  0
 12 13  2  0  0  0  0
 12 14  1  0  0  0  0
 14 30  1  0  0  0  0
 15 16  1  0  0  0  0
 15 31  1  0  0  0  0
 16 17  2  0  0  0  0
 16 32  1  0  0  0  0
M  END
$$$$
Target_lig_1260
 OpenBabel05122505473D

 25 24  0  0  1  0  0  0  0  0999 V2000
    5.2580    3.7371    0.8583 N   0  3  0  0  0  0  0  0  0  0  0  0
    4.7287    2.5118    1.5196 C   0  0  0  0  0  0  0  0  0  0  0  0
    5.1634    1.2343    0.8164 C   0  0  0  0  0  0  0  0  0  0  0  0
    6.9355    1.0320    0.8267 S   0  0  0  0  0  0  0  0  0  0  0  0
    7.2715   -0.1467    0.0625 O   0  0  0  0  0  0  0  0  0  0  0  0
    7.4683    2.3386    0.4804 O   0  0  0  0  0  0  0  0  0  0  0  0
    7.3544    0.7107    2.5032 C   0  0  0  0  0  0  0  0  0  0  0  0
    8.8535    0.5922    2.6924 C   0  0  2  0  0  0  0  0  0  0  0  0
    9.4498   -0.6407    2.0463 N   0  3  0  0  0  0  0  0  0  0  0  0
    9.0990    0.5302    4.2215 C   0  0  0  0  0  0  0  0  0  0  0  0
   10.0633   -0.2581    4.4594 O   0  5  0  0  0  0  0  0  0  0  0  0
    8.2856    1.1424    4.9481 O   0  0  0  0  0  0  0  0  0  0  0  0
    5.0488    4.5892    1.3997 H   0  0  0  0  0  0  0  0  0  0  0  0
    4.8882    3.8816   -0.0911 H   0  0  0  0  0  0  0  0  0  0  0  0
    6.2957    3.7025    0.7537 H   0  0  0  0  0  0  0  0  0  0  0  0
    3.6391    2.6061    1.5033 H   0  0  0  0  0  0  0  0  0  0  0  0
    5.0632    2.5486    2.5592 H   0  0  0  0  0  0  0  0  0  0  0  0
    4.8546    1.2481   -0.2342 H   0  0  0  0  0  0  0  0  0  0  0  0
    4.7261    0.3503    1.2895 H   0  0  0  0  0  0  0  0  0  0  0  0
    6.8187   -0.1866    2.8295 H   0  0  0  0  0  0  0  0  0  0  0  0
    6.9664    1.5712    3.0566 H   0  0  0  0  0  0  0  0  0  0  0  0
    9.4043    1.4464    2.2835 H   0  0  0  0  0  0  0  0  0  0  0  0
    8.8676   -1.4792    2.1347 H   0  0  0  0  0  0  0  0  0  0  0  0
   10.2516   -0.8435    2.6951 H   0  0  0  0  0  0  0  0  0  0  0  0
    9.8035   -0.5274    1.0927 H   0  0  0  0  0  0  0  0  0  0  0  0
  1  2  1  0  0  0  0
  1 13  1  0  0  0  0
  1 14  1  0  0  0  0
  1 15  1  0  0  0  0
  2  3  1  0  0  0  0
  2 16  1  0  0  0  0
  2 17  1  0  0  0  0
  3  4  1  0  0  0  0
  3 18  1  0  0  0  0
  3 19  1  0  0  0  0
  4  5  2  0  0  0  0
  4  6  2  0  0  0  0
  4  7  1  0  0  0  0
  7 20  1  0  0  0  0
  7 21  1  0  0  0  0
  8 10  1  0  0  0  0
  8  9  1  0  0  0  0
  8  7  1  0  0  0  0
  8 22  1  6  0  0  0
  9 23  1  0  0  0  0
  9 24  1  0  0  0  0
  9 25  1  0  0  0  0
 10 11  1  0  0  0  0
 10 12  2  0  0  0  0
M  CHG  3   1   1   9   1  11  -1
M  END
$$$$
Target_lig_1261
 OpenBabel05122505473D

 23 22  0  0  1  0  0  0  0  0999 V2000
    8.2919   -1.3960    1.0097 N   0  3  0  0  0  0  0  0  0  0  0  0
    8.0745   -2.5424    0.0876 C   0  0  0  0  0  0  0  0  0  0  0  0
    6.6189   -2.5215   -0.4054 C   0  0  0  0  0  0  0  0  0  0  0  0
    6.2448   -1.2320   -0.9259 O   0  0  0  0  0  0  0  0  0  0  0  0
    6.8808   -0.9468   -2.1865 C   0  0  0  0  0  0  0  0  0  0  0  0
    6.3784    0.3847   -2.7477 C   0  0  2  0  0  0  0  0  0  0  0  0
    4.9229    0.2694   -3.1428 N   0  3  0  0  0  0  0  0  0  0  0  0
    7.2950    0.5930   -3.9701 C   0  0  0  0  0  0  0  0  0  0  0  0
    6.6241    0.5313   -5.0407 O   0  5  0  0  0  0  0  0  0  0  0  0
    8.5174    0.7176   -3.7217 O   0  0  0  0  0  0  0  0  0  0  0  0
    9.2904   -1.2718    1.2349 H   0  0  0  0  0  0  0  0  0  0  0  0
    7.7761   -1.4995    1.8908 H   0  0  0  0  0  0  0  0  0  0  0  0
    7.9663   -0.5211    0.5674 H   0  0  0  0  0  0  0  0  0  0  0  0
    8.3114   -3.4594    0.6363 H   0  0  0  0  0  0  0  0  0  0  0  0
    8.7854   -2.4152   -0.7301 H   0  0  0  0  0  0  0  0  0  0  0  0
    5.9515   -2.7244    0.4387 H   0  0  0  0  0  0  0  0  0  0  0  0
    6.4452   -3.2994   -1.1560 H   0  0  0  0  0  0  0  0  0  0  0  0
    6.6880   -1.7690   -2.8876 H   0  0  0  0  0  0  0  0  0  0  0  0
    7.9584   -0.8933   -2.0053 H   0  0  0  0  0  0  0  0  0  0  0  0
    6.4419    1.1980   -2.0196 H   0  0  0  0  0  0  0  0  0  0  0  0
    4.9437   -0.2390   -4.0501 H   0  0  0  0  0  0  0  0  0  0  0  0
    4.5838    1.1952   -3.4262 H   0  0  0  0  0  0  0  0  0  0  0  0
    4.3155   -0.1778   -2.4573 H   0  0  0  0  0  0  0  0  0  0  0  0
  1  2  1  0  0  0  0
  1 11  1  0  0  0  0
  1 12  1  0  0  0  0
  1 13  1  0  0  0  0
  2  3  1  0  0  0  0
  2 14  1  0  0  0  0
  2 15  1  0  0  0  0
  3  4  1  0  0  0  0
  3 16  1  0  0  0  0
  3 17  1  0  0  0  0
  4  5  1  0  0  0  0
  5 18  1  0  0  0  0
  5 19  1  0  0  0  0
  6  8  1  0  0  0  0
  6  7  1  0  0  0  0
  6  5  1  0  0  0  0
  6 20  1  1  0  0  0
  7 21  1  0  0  0  0
  7 22  1  0  0  0  0
  7 23  1  0  0  0  0
  8  9  1  0  0  0  0
  8 10  2  0  0  0  0
M  CHG  3   1   1   7   1   9  -1
M  END
$$$$
Target_lig_1044
 OpenBabel05122505473D

 37 38  0  0  1  0  0  0  0  0999 V2000
   -0.1592    0.3342   -1.0271 C   0  0  0  0  0  0  0  0  0  0  0  0
    0.1993   -0.8906   -0.7070 N   0  0  0  0  0  0  0  0  0  0  0  0
    0.2565   -0.8986    0.6796 C   0  0  0  0  0  0  0  0  0  0  0  0
   -0.0736    0.3516    1.1813 C   0  0  0  0  0  0  0  0  0  0  0  0
   -0.3729    1.1190    0.0796 N   0  0  0  0  0  0  0  0  0  0  0  0
   -0.6119    2.5509    0.0465 C   0  0  3  0  0  0  0  0  0  0  0  0
   -1.5264    3.1348    1.1363 C   0  0  3  0  0  0  0  0  0  0  0  0
   -2.2246    4.3179    0.4528 C   0  0  3  0  0  0  0  0  0  0  0  0
   -1.7472    4.2669   -1.0052 C   0  0  3  0  0  0  0  0  0  0  0  0
   -1.2411    2.9269   -1.1961 O   0  0  0  0  0  0  0  0  0  0  0  0
   -0.6408    5.2811   -1.3168 C   0  0  0  0  0  0  0  0  0  0  0  0
   -0.1974    5.1420   -2.6584 O   0  0  0  0  0  0  0  0  0  0  0  0
    1.0851    6.0143   -3.0522 P   0  0  0  0  0  0  0  0  0  0  0  0
    2.0904    6.2219   -1.9720 O   0  0  0  0  0  0  0  0  0  0  0  0
    1.6217    5.3431   -4.3897 O   0  0  0  0  0  0  0  0  0  0  0  0
    0.4852    7.3866   -3.6000 O   0  0  0  0  0  0  0  0  0  0  0  0
   -2.0419    5.5768    1.0897 O   0  0  0  0  0  0  0  0  0  0  0  0
   -0.8311    3.4919    2.3343 O   0  0  0  0  0  0  0  0  0  0  0  0
   -0.0983    0.8087    2.4468 N   0  0  0  0  0  0  0  0  0  0  0  0
    0.6537   -2.0660    1.4690 C   0  0  0  0  0  0  0  0  0  0  0  0
    0.7167   -2.0969    2.6932 O   0  0  0  0  0  0  0  0  0  0  0  0
    0.9663   -3.1610    0.7138 N   0  0  0  0  0  0  0  0  0  0  0  0
   -0.2586    0.7140   -2.0375 H   0  0  0  0  0  0  0  0  0  0  0  0
    0.3858    3.0050    0.0838 H   0  0  0  0  0  0  0  0  0  0  0  0
   -2.2913    2.3978    1.4144 H   0  0  0  0  0  0  0  0  0  0  0  0
   -3.3035    4.1225    0.4677 H   0  0  0  0  0  0  0  0  0  0  0  0
   -2.5815    4.4119   -1.7012 H   0  0  0  0  0  0  0  0  0  0  0  0
    0.2167    5.1017   -0.6606 H   0  0  0  0  0  0  0  0  0  0  0  0
   -0.9892    6.3069   -1.1650 H   0  0  0  0  0  0  0  0  0  0  0  0
    0.9113    5.2408   -5.0477 H   0  0  0  0  0  0  0  0  0  0  0  0
    1.1692    8.0830   -3.5757 H   0  0  0  0  0  0  0  0  0  0  0  0
   -1.1014    5.7803    1.2080 H   0  0  0  0  0  0  0  0  0  0  0  0
   -0.2100    4.2155    2.1526 H   0  0  0  0  0  0  0  0  0  0  0  0
    0.1081    0.1713    3.2194 H   0  0  0  0  0  0  0  0  0  0  0  0
   -0.3689    1.7477    2.7500 H   0  0  0  0  0  0  0  0  0  0  0  0
    0.9149   -3.0922   -0.2935 H   0  0  0  0  0  0  0  0  0  0  0  0
    1.2587   -4.0086    1.1716 H   0  0  0  0  0  0  0  0  0  0  0  0
  1  2  2  0  0  0  0
  1  5  1  0  0  0  0
  1 23  1  0  0  0  0
  2  3  1  0  0  0  0
  3  4  2  0  0  0  0
  3 20  1  0  0  0  0
  4  5  1  0  0  0  0
  4 19  1  0  0  0  0
  5  6  1  0  0  0  0
  6  7  1  0  0  0  0
  6 10  1  0  0  0  0
  6 24  1  0  0  0  0
  7  8  1  0  0  0  0
  7 18  1  0  0  0  0
  7 25  1  0  0  0  0
  8  9  1  0  0  0  0
  8 17  1  0  0  0  0
  8 26  1  0  0  0  0
  9 10  1  0  0  0  0
  9 11  1  0  0  0  0
  9 27  1  0  0  0  0
 11 12  1  0  0  0  0
 11 28  1  0  0  0  0
 11 29  1  0  0  0  0
 12 13  1  0  0  0  0
 13 14  2  0  0  0  0
 13 15  1  0  0  0  0
 13 16  1  0  0  0  0
 15 30  1  0  0  0  0
 16 31  1  0  0  0  0
 17 32  1  0  0  0  0
 18 33  1  0  0  0  0
 19 34  1  0  0  0  0
 19 35  1  0  0  0  0
 20 21  2  0  0  0  0
 20 22  1  0  0  0  0
 22 36  1  0  0  0  0
 22 37  1  0  0  0  0
M  END
$$$$
Target_lig_1045
 OpenBabel05122505473D

 41 44  0  0  0  0  0  0  0  0999 V2000
    1.2933   -1.0346    0.3818 C   0  0  0  0  0  0  0  0  0  0  0  0
    2.2611    0.0731    0.1294 C   0  0  0  0  0  3  0  0  0  0  0  0
    2.7856    0.7998    1.2022 N   0  0  0  0  0  0  0  0  0  0  0  0
    3.3833    0.2908    2.3515 C   0  0  0  0  0  0  0  0  0  0  0  0
    3.8088   -1.0083    2.6808 C   0  0  0  0  0  0  0  0  0  0  0  0
    4.3863   -1.2314    3.9394 C   0  0  0  0  0  0  0  0  0  0  0  0
    4.5490   -0.2143    4.8834 C   0  0  0  0  0  0  0  0  0  0  0  0
    4.1278    1.0731    4.5166 C   0  0  0  0  0  0  0  0  0  0  0  0
    3.5693    1.3459    3.2420 C   0  0  0  0  0  0  0  0  0  0  0  0
    3.1377    2.5387    2.5921 C   0  0  0  0  0  0  0  0  0  0  0  0
    2.7274    2.1900    1.3050 C   0  0  0  0  0  0  0  0  0  0  0  0
    2.2512    3.1553    0.3961 C   0  0  0  0  0  0  0  0  0  0  0  0
    2.1826    4.4875    0.8125 C   0  0  0  0  0  0  0  0  0  0  0  0
    2.5820    4.8526    2.0930 C   0  0  0  0  0  0  0  0  0  0  0  0
    3.0695    3.8933    2.9849 C   0  0  0  0  0  0  0  0  0  0  0  0
    5.1248   -0.4359    6.1229 N   0  0  0  0  0  0  0  0  0  0  0  0
    6.1634   -1.4513    6.3471 C   0  0  0  0  0  0  0  0  0  0  0  0
    5.6851   -2.5385    7.3341 C   0  0  0  0  0  0  0  0  0  0  0  0
    5.1632   -1.9894    8.6053 N   0  0  0  0  0  0  0  0  0  0  0  0
    4.0682   -1.0464    8.2881 C   0  0  0  0  0  0  0  0  0  0  0  0
    4.4841    0.1007    7.3345 C   0  0  0  0  0  0  0  0  0  0  0  0
    1.0963   -1.5758   -0.5462 H   0  0  0  0  0  0  0  0  0  0  0  0
    0.3437   -0.6054    0.7245 H   0  0  0  0  0  0  0  0  0  0  0  0
    1.6325   -1.7522    1.1284 H   0  0  0  0  0  0  0  0  0  0  0  0
    2.1210    0.6252   -0.7926 H   0  0  0  0  0  0  0  0  0  0  0  0
    3.7139   -1.8297    1.9774 H   0  0  0  0  0  0  0  0  0  0  0  0
    4.6869   -2.2496    4.1775 H   0  0  0  0  0  0  0  0  0  0  0  0
    4.2774    1.9047    5.1992 H   0  0  0  0  0  0  0  0  0  0  0  0
    1.9124    2.8838   -0.5983 H   0  0  0  0  0  0  0  0  0  0  0  0
    1.7966    5.2408    0.1311 H   0  0  0  0  0  0  0  0  0  0  0  0
    2.5098    5.8916    2.4053 H   0  0  0  0  0  0  0  0  0  0  0  0
    3.3806    4.1887    3.9826 H   0  0  0  0  0  0  0  0  0  0  0  0
    7.0381   -0.9457    6.7753 H   0  0  0  0  0  0  0  0  0  0  0  0
    6.5122   -1.9167    5.4194 H   0  0  0  0  0  0  0  0  0  0  0  0
    6.5233   -3.2053    7.5653 H   0  0  0  0  0  0  0  0  0  0  0  0
    4.9098   -3.1555    6.8651 H   0  0  0  0  0  0  0  0  0  0  0  0
    5.9130   -1.4577    9.0472 H   0  0  0  0  0  0  0  0  0  0  0  0
    3.6983   -0.6163    9.2255 H   0  0  0  0  0  0  0  0  0  0  0  0
    3.2339   -1.6077    7.8490 H   0  0  0  0  0  0  0  0  0  0  0  0
    5.1977    0.7599    7.8437 H   0  0  0  0  0  0  0  0  0  0  0  0
    3.5923    0.6971    7.1109 H   0  0  0  0  0  0  0  0  0  0  0  0
  1  2  1  0  0  0  0
  1 22  1  0  0  0  0
  1 23  1  0  0  0  0
  1 24  1  0  0  0  0
  2  3  1  0  0  0  0
  2 25  1  0  0  0  0
  3  4  1  0  0  0  0
  3 11  1  0  0  0  0
  4  5  1  0  0  0  0
  4  9  2  0  0  0  0
  5  6  2  0  0  0  0
  5 26  1  0  0  0  0
  6  7  1  0  0  0  0
  6 27  1  0  0  0  0
  7  8  2  0  0  0  0
  7 16  1  0  0  0  0
  8  9  1  0  0  0  0
  8 28  1  0  0  0  0
  9 10  1  0  0  0  0
 10 11  1  0  0  0  0
 10 15  2  0  0  0  0
 11 12  2  0  0  0  0
 12 13  1  0  0  0  0
 12 29  1  0  0  0  0
 13 14  2  0  0  0  0
 13 30  1  0  0  0  0
 14 15  1  0  0  0  0
 14 31  1  0  0  0  0
 15 32  1  0  0  0  0
 16 17  1  0  0  0  0
 16 21  1  0  0  0  0
 17 18  1  0  0  0  0
 17 33  1  0  0  0  0
 17 34  1  0  0  0  0
 18 19  1  0  0  0  0
 18 35  1  0  0  0  0
 18 36  1  0  0  0  0
 19 20  1  0  0  0  0
 19 37  1  0  0  0  0
 20 21  1  0  0  0  0
 20 38  1  0  0  0  0
 20 39  1  0  0  0  0
 21 40  1  0  0  0  0
 21 41  1  0  0  0  0
M  END
$$$$
Target_lig_1046
 OpenBabel05122505473D

 32 33  0  0  1  0  0  0  0  0999 V2000
   -0.0605    0.3376   -1.0660 C   0  0  0  0  0  0  0  0  0  0  0  0
    0.2720   -0.8949   -0.7496 N   0  0  0  0  0  0  0  0  0  0  0  0
    0.2706   -0.9236    0.6398 C   0  0  0  0  0  0  0  0  0  0  0  0
   -0.0711    0.3197    1.1438 C   0  0  0  0  0  0  0  0  0  0  0  0
   -0.3017    1.1101    0.0428 N   0  0  0  0  0  0  0  0  0  0  0  0
   -0.5440    2.5436    0.0311 C   0  0  3  0  0  0  0  0  0  0  0  0
   -1.4799    3.0804    1.1172 C   0  0  3  0  0  0  0  0  0  0  0  0
   -2.1222    4.3125    0.4856 C   0  0  3  0  0  0  0  0  0  0  0  0
   -1.6879    4.2597   -0.9890 C   0  0  3  0  0  0  0  0  0  0  0  0
   -1.1539    2.9443   -1.2175 O   0  0  0  0  0  0  0  0  0  0  0  0
   -0.6394    5.3108   -1.3688 C   0  0  0  0  0  0  0  0  0  0  0  0
   -1.1231    6.6204   -1.0803 O   0  0  0  0  0  0  0  0  0  0  0  0
   -1.7171    5.4727    1.2203 O   0  0  0  0  0  0  0  0  0  0  0  0
   -0.7625    3.4316    2.3117 O   0  0  0  0  0  0  0  0  0  0  0  0
   -0.1698    0.7532    2.4146 N   0  0  0  0  0  0  0  0  0  0  0  0
    0.6234   -2.1021    1.4308 C   0  0  0  0  0  0  0  0  0  0  0  0
    0.6439   -2.1429    2.6568 O   0  0  0  0  0  0  0  0  0  0  0  0
    0.9530   -3.1919    0.6798 N   0  0  0  0  0  0  0  0  0  0  0  0
   -0.1247    0.7312   -2.0732 H   0  0  0  0  0  0  0  0  0  0  0  0
    0.4494    3.0053    0.0942 H   0  0  0  0  0  0  0  0  0  0  0  0
   -2.2569    2.3510    1.3741 H   0  0  0  0  0  0  0  0  0  0  0  0
   -3.2131    4.2407    0.5555 H   0  0  0  0  0  0  0  0  0  0  0  0
   -2.5672    4.3916   -1.6300 H   0  0  0  0  0  0  0  0  0  0  0  0
   -0.3770    5.2384   -2.4308 H   0  0  0  0  0  0  0  0  0  0  0  0
    0.2872    5.1613   -0.8035 H   0  0  0  0  0  0  0  0  0  0  0  0
   -1.6233    6.9216   -1.8685 H   0  0  0  0  0  0  0  0  0  0  0  0
   -1.6498    6.2266    0.5916 H   0  0  0  0  0  0  0  0  0  0  0  0
   -0.8335    4.4117    2.3718 H   0  0  0  0  0  0  0  0  0  0  0  0
    0.0949    0.1339    3.1827 H   0  0  0  0  0  0  0  0  0  0  0  0
   -0.2572    1.7351    2.6944 H   0  0  0  0  0  0  0  0  0  0  0  0
    0.9381   -3.1193   -0.3293 H   0  0  0  0  0  0  0  0  0  0  0  0
    1.2183   -4.0476    1.1428 H   0  0  0  0  0  0  0  0  0  0  0  0
  1  2  2  0  0  0  0
  1  5  1  0  0  0  0
  1 19  1  0  0  0  0
  2  3  1  0  0  0  0
  3  4  2  0  0  0  0
  3 16  1  0  0  0  0
  4  5  1  0  0  0  0
  4 15  1  0  0  0  0
  5  6  1  0  0  0  0
  6  7  1  0  0  0  0
  6 10  1  0  0  0  0
  6 20  1  0  0  0  0
  7  8  1  0  0  0  0
  7 14  1  0  0  0  0
  7 21  1  0  0  0  0
  8  9  1  0  0  0  0
  8 13  1  0  0  0  0
  8 22  1  0  0  0  0
  9 10  1  0  0  0  0
  9 11  1  0  0  0  0
  9 23  1  0  0  0  0
 11 12  1  0  0  0  0
 11 24  1  0  0  0  0
 11 25  1  0  0  0  0
 12 26  1  0  0  0  0
 13 27  1  0  0  0  0
 14 28  1  0  0  0  0
 15 29  1  0  0  0  0
 15 30  1  0  0  0  0
 16 17  2  0  0  0  0
 16 18  1  0  0  0  0
 18 31  1  0  0  0  0
 18 32  1  0  0  0  0
M  END
$$$$
Target_lig_1047
 OpenBabel05122505473D

 24 25  0  0  0  0  0  0  0  0999 V2000
    0.7116   -1.1263   -0.2588 C   0  0  0  0  0  0  0  0  0  0  0  0
   -0.6595   -1.1109   -0.0683 C   0  0  0  0  0  0  0  0  0  0  0  0
   -1.3370   -0.0556    0.4302 N   0  0  0  0  0  0  0  0  0  0  0  0
   -0.6118    1.0295    0.7727 C   0  0  0  0  0  0  0  0  0  0  0  0
    0.7651    1.1091    0.6441 C   0  0  0  0  0  0  0  0  0  0  0  0
    1.4367    0.0118    0.0992 C   0  0  0  0  0  0  0  0  0  0  0  0
    2.8468    0.0582   -0.0708 N   0  0  0  0  0  0  0  0  0  0  0  0
    3.7232    0.7480    0.7419 C   0  0  0  0  0  0  0  0  0  0  0  0
    4.9783    0.5925    0.3920 N   0  0  0  0  0  0  0  0  0  0  0  0
    4.9399   -0.2237   -0.7271 C   0  0  0  0  0  0  0  0  0  0  0  0
    3.6272   -0.5506   -1.0494 C   0  0  0  0  0  0  0  0  0  0  0  0
    3.1251   -1.2277   -2.1169 N   0  0  0  0  0  0  0  0  0  0  0  0
    6.1501   -0.5957   -1.4602 C   0  0  0  0  0  0  0  0  0  0  0  0
    6.1658   -1.2813   -2.4789 O   0  0  0  0  0  0  0  0  0  0  0  0
    7.2942   -0.0799   -0.9203 N   0  0  0  0  0  0  0  0  0  0  0  0
    1.1865   -2.0297   -0.6276 H   0  0  0  0  0  0  0  0  0  0  0  0
   -1.2681   -1.9783   -0.3106 H   0  0  0  0  0  0  0  0  0  0  0  0
   -1.1872    1.8663    1.1597 H   0  0  0  0  0  0  0  0  0  0  0  0
    1.2667    2.0310    0.9165 H   0  0  0  0  0  0  0  0  0  0  0  0
    3.3925    1.3070    1.6072 H   0  0  0  0  0  0  0  0  0  0  0  0
    3.7741   -1.4477   -2.8789 H   0  0  0  0  0  0  0  0  0  0  0  0
    2.1928   -1.0190   -2.4684 H   0  0  0  0  0  0  0  0  0  0  0  0
    7.2275    0.5224   -0.1081 H   0  0  0  0  0  0  0  0  0  0  0  0
    8.1781   -0.2467   -1.3739 H   0  0  0  0  0  0  0  0  0  0  0  0
  1  2  2  0  0  0  0
  1  6  1  0  0  0  0
  1 16  1  0  0  0  0
  2  3  1  0  0  0  0
  2 17  1  0  0  0  0
  3  4  2  0  0  0  0
  4  5  1  0  0  0  0
  4 18  1  0  0  0  0
  5  6  2  0  0  0  0
  5 19  1  0  0  0  0
  6  7  1  0  0  0  0
  7  8  1  0  0  0  0
  7 11  1  0  0  0  0
  8  9  2  0  0  0  0
  8 20  1  0  0  0  0
  9 10  1  0  0  0  0
 10 11  2  0  0  0  0
 10 13  1  0  0  0  0
 11 12  1  0  0  0  0
 12 21  1  0  0  0  0
 12 22  1  0  0  0  0
 13 14  2  0  0  0  0
 13 15  1  0  0  0  0
 15 23  1  0  0  0  0
 15 24  1  0  0  0  0
M  END
$$$$
Target_lig_1048
 OpenBabel05122505473D

 30 31  0  0  0  0  0  0  0  0999 V2000
   -0.6621    1.2635    0.1628 C   0  0  0  0  0  0  0  0  0  0  0  0
    0.8362    1.1975   -0.1156 C   0  0  0  0  0  0  0  0  0  0  0  0
    1.4461   -0.0247    0.4031 N   0  0  0  0  0  0  0  0  0  0  0  0
    0.8127   -1.2415   -0.0988 C   0  0  0  0  0  0  0  0  0  0  0  0
   -0.6915   -1.2689    0.1563 C   0  0  0  0  0  0  0  0  0  0  0  0
   -1.4114    0.0080   -0.3026 C   0  0  0  0  0  0  0  0  0  0  0  0
   -1.7474    0.0304   -1.7248 N   0  0  0  0  0  0  0  0  0  0  0  0
   -0.8578   -0.0374   -2.7658 C   0  0  0  0  0  0  0  0  0  0  0  0
   -1.4459    0.0122   -3.9361 N   0  0  0  0  0  0  0  0  0  0  0  0
   -2.7977    0.1242   -3.6536 C   0  0  0  0  0  0  0  0  0  0  0  0
   -3.0057    0.1413   -2.2828 C   0  0  0  0  0  0  0  0  0  0  0  0
   -4.1446    0.2412   -1.5673 N   0  0  0  0  0  0  0  0  0  0  0  0
   -3.7953    0.2221   -4.7175 C   0  0  0  0  0  0  0  0  0  0  0  0
   -5.0053    0.3239   -4.5398 O   0  0  0  0  0  0  0  0  0  0  0  0
   -3.2467    0.2040   -5.9690 N   0  0  0  0  0  0  0  0  0  0  0  0
   -1.0892    2.1649   -0.2934 H   0  0  0  0  0  0  0  0  0  0  0  0
   -0.8042    1.3672    1.2475 H   0  0  0  0  0  0  0  0  0  0  0  0
    1.3233    2.0565    0.3599 H   0  0  0  0  0  0  0  0  0  0  0  0
    1.0439    1.3008   -1.1846 H   0  0  0  0  0  0  0  0  0  0  0  0
    1.4091   -0.0174    1.4224 H   0  0  0  0  0  0  0  0  0  0  0  0
    1.2720   -2.1024    0.4019 H   0  0  0  0  0  0  0  0  0  0  0  0
    1.0376   -1.3751   -1.1595 H   0  0  0  0  0  0  0  0  0  0  0  0
   -0.8470   -1.3756    1.2392 H   0  0  0  0  0  0  0  0  0  0  0  0
   -1.1360   -2.1564   -0.3092 H   0  0  0  0  0  0  0  0  0  0  0  0
   -2.3723    0.0099    0.2239 H   0  0  0  0  0  0  0  0  0  0  0  0
    0.2110   -0.1186   -2.6389 H   0  0  0  0  0  0  0  0  0  0  0  0
   -5.0272    0.3963   -2.0623 H   0  0  0  0  0  0  0  0  0  0  0  0
   -4.2074    0.3926   -0.5679 H   0  0  0  0  0  0  0  0  0  0  0  0
   -2.2379    0.1399   -6.0546 H   0  0  0  0  0  0  0  0  0  0  0  0
   -3.8371    0.2839   -6.7797 H   0  0  0  0  0  0  0  0  0  0  0  0
  1  2  1  0  0  0  0
  1  6  1  0  0  0  0
  1 16  1  0  0  0  0
  1 17  1  0  0  0  0
  2  3  1  0  0  0  0
  2 18  1  0  0  0  0
  2 19  1  0  0  0  0
  3  4  1  0  0  0  0
  3 20  1  0  0  0  0
  4  5  1  0  0  0  0
  4 21  1  0  0  0  0
  4 22  1  0  0  0  0
  5  6  1  0  0  0  0
  5 23  1  0  0  0  0
  5 24  1  0  0  0  0
  6  7  1  0  0  0  0
  6 25  1  0  0  0  0
  7  8  1  0  0  0  0
  7 11  1  0  0  0  0
  8  9  2  0  0  0  0
  8 26  1  0  0  0  0
  9 10  1  0  0  0  0
 10 11  2  0  0  0  0
 10 13  1  0  0  0  0
 11 12  1  0  0  0  0
 12 27  1  0  0  0  0
 12 28  1  0  0  0  0
 13 14  2  0  0  0  0
 13 15  1  0  0  0  0
 15 29  1  0  0  0  0
 15 30  1  0  0  0  0
M  END
$$$$
Target_lig_1049
 OpenBabel05122505473D

 22 22  0  0  0  0  0  0  0  0999 V2000
   -1.0084   -0.0736   -0.0112 C   0  0  0  0  0  0  0  0  0  0  0  0
   -0.2614   -1.1547   -0.0072 N   0  0  0  0  0  0  0  0  0  0  0  0
    1.0516   -0.6936    0.0115 C   0  0  0  0  0  0  0  0  0  0  0  0
    1.0673    0.6930    0.0374 C   0  0  0  0  0  0  0  0  0  0  0  0
   -0.2526    1.0674    0.0081 N   0  0  0  0  0  0  0  0  0  0  0  0
   -0.7827    2.4178   -0.0258 C   0  0  0  0  0  0  0  0  0  0  0  0
   -1.0324    2.9913    1.3660 C   0  0  0  0  0  0  0  0  0  0  0  0
    0.1732    3.1587    2.1043 O   0  0  0  0  0  0  0  0  0  0  0  0
    2.0820    1.5768    0.0905 N   0  0  0  0  0  0  0  0  0  0  0  0
    2.2142   -1.5821    0.0066 C   0  0  0  0  0  0  0  0  0  0  0  0
    3.3820   -1.2058    0.0114 O   0  0  0  0  0  0  0  0  0  0  0  0
    1.8911   -2.9060   -0.0057 N   0  0  0  0  0  0  0  0  0  0  0  0
   -2.0908   -0.0593   -0.0297 H   0  0  0  0  0  0  0  0  0  0  0  0
   -1.7177    2.3890   -0.5958 H   0  0  0  0  0  0  0  0  0  0  0  0
   -0.0743    3.0396   -0.5832 H   0  0  0  0  0  0  0  0  0  0  0  0
   -1.7179    2.3666    1.9476 H   0  0  0  0  0  0  0  0  0  0  0  0
   -1.4842    3.9840    1.2685 H   0  0  0  0  0  0  0  0  0  0  0  0
    0.5682    2.2741    2.2352 H   0  0  0  0  0  0  0  0  0  0  0  0
    3.0473    1.2408    0.0349 H   0  0  0  0  0  0  0  0  0  0  0  0
    1.9911    2.5884    0.0643 H   0  0  0  0  0  0  0  0  0  0  0  0
    0.9153   -3.1743   -0.0320 H   0  0  0  0  0  0  0  0  0  0  0  0
    2.6243   -3.5990   -0.0337 H   0  0  0  0  0  0  0  0  0  0  0  0
  1  2  2  0  0  0  0
  1  5  1  0  0  0  0
  1 13  1  0  0  0  0
  2  3  1  0  0  0  0
  3  4  2  0  0  0  0
  3 10  1  0  0  0  0
  4  5  1  0  0  0  0
  4  9  1  0  0  0  0
  5  6  1  0  0  0  0
  6  7  1  0  0  0  0
  6 14  1  0  0  0  0
  6 15  1  0  0  0  0
  7  8  1  0  0  0  0
  7 16  1  0  0  0  0
  7 17  1  0  0  0  0
  8 18  1  0  0  0  0
  9 19  1  0  0  0  0
  9 20  1  0  0  0  0
 10 11  2  0  0  0  0
 10 12  1  0  0  0  0
 12 21  1  0  0  0  0
 12 22  1  0  0  0  0
M  END
$$$$
Target_lig_1050
 OpenBabel05122505473D

 24 25  0  0  0  0  0  0  0  0999 V2000
    1.3524   -0.5103   -0.5646 N   0  0  0  0  0  0  0  0  0  0  0  0
    2.4268    0.1375   -0.0246 C   0  0  0  0  0  0  0  0  0  0  0  0
    2.6086    1.3368   -0.2134 O   0  0  0  0  0  0  0  0  0  0  0  0
    3.2985   -0.7282    0.7688 C   0  0  0  0  0  0  0  0  0  0  0  0
    3.0683   -2.0870    0.9297 N   0  0  0  0  0  0  0  0  0  0  0  0
    4.0565   -2.5110    1.6874 C   0  0  0  0  0  0  0  0  0  0  0  0
    4.9418   -1.5121    2.0395 N   0  0  0  0  0  0  0  0  0  0  0  0
    4.4365   -0.3481    1.4605 C   0  0  0  0  0  0  0  0  0  0  0  0
    5.0210    0.8618    1.6035 N   0  0  0  0  0  0  0  0  0  0  0  0
    6.1373   -1.6420    2.8210 C   0  0  0  0  0  0  0  0  0  0  0  0
    6.5392   -2.8900    3.2980 C   0  0  0  0  0  0  0  0  0  0  0  0
    7.7237   -2.9825    4.0311 C   0  0  0  0  0  0  0  0  0  0  0  0
    8.4731   -1.8396    4.2775 C   0  0  0  0  0  0  0  0  0  0  0  0
    8.0070   -0.6388    3.7797 C   0  0  0  0  0  0  0  0  0  0  0  0
    6.8687   -0.5165    3.0631 N   0  0  0  0  0  0  0  0  0  0  0  0
    0.6847    0.0137   -1.1077 H   0  0  0  0  0  0  0  0  0  0  0  0
    1.2184   -1.4951   -0.3709 H   0  0  0  0  0  0  0  0  0  0  0  0
    4.1698   -3.5378    2.0048 H   0  0  0  0  0  0  0  0  0  0  0  0
    5.8976    0.9615    2.1217 H   0  0  0  0  0  0  0  0  0  0  0  0
    4.6782    1.6893    1.1171 H   0  0  0  0  0  0  0  0  0  0  0  0
    5.9796   -3.8001    3.1191 H   0  0  0  0  0  0  0  0  0  0  0  0
    8.0612   -3.9453    4.4060 H   0  0  0  0  0  0  0  0  0  0  0  0
    9.3982   -1.8842    4.8411 H   0  0  0  0  0  0  0  0  0  0  0  0
    8.5522    0.2865    3.9455 H   0  0  0  0  0  0  0  0  0  0  0  0
  1  2  1  0  0  0  0
  1 16  1  0  0  0  0
  1 17  1  0  0  0  0
  2  3  2  0  0  0  0
  2  4  1  0  0  0  0
  4  5  1  0  0  0  0
  4  8  2  0  0  0  0
  5  6  2  0  0  0  0
  6  7  1  0  0  0  0
  6 18  1  0  0  0  0
  7  8  1  0  0  0  0
  7 10  1  0  0  0  0
  8  9  1  0  0  0  0
  9 19  1  0  0  0  0
  9 20  1  0  0  0  0
 10 11  1  0  0  0  0
 10 15  2  0  0  0  0
 11 12  2  0  0  0  0
 11 21  1  0  0  0  0
 12 13  1  0  0  0  0
 12 22  1  0  0  0  0
 13 14  2  0  0  0  0
 13 23  1  0  0  0  0
 14 15  1  0  0  0  0
 14 24  1  0  0  0  0
M  END
$$$$
Target_lig_1051
 OpenBabel05122505473D

 24 25  0  0  0  0  0  0  0  0999 V2000
   -1.2634    0.1426   -0.0519 C   0  0  0  0  0  0  0  0  0  0  0  0
   -0.6035   -1.0657   -0.2671 C   0  0  0  0  0  0  0  0  0  0  0  0
    0.7370   -1.1891    0.1047 C   0  0  0  0  0  0  0  0  0  0  0  0
    1.3524   -0.0895    0.6939 C   0  0  0  0  0  0  0  0  0  0  0  0
    0.7334    1.0956    0.9064 N   0  0  0  0  0  0  0  0  0  0  0  0
   -0.5593    1.1853    0.5273 C   0  0  0  0  0  0  0  0  0  0  0  0
    1.4592   -2.3943   -0.0872 N   0  0  0  0  0  0  0  0  0  0  0  0
    2.4996   -2.8342    0.7073 C   0  0  0  0  0  0  0  0  0  0  0  0
    2.9700   -4.0030    0.3399 N   0  0  0  0  0  0  0  0  0  0  0  0
    2.2180   -4.3595   -0.7691 C   0  0  0  0  0  0  0  0  0  0  0  0
    1.2910   -3.3682   -1.0689 C   0  0  0  0  0  0  0  0  0  0  0  0
    0.4356   -3.2587   -2.1210 N   0  0  0  0  0  0  0  0  0  0  0  0
    2.4667   -5.5898   -1.5147 C   0  0  0  0  0  0  0  0  0  0  0  0
    1.8494   -5.9351   -2.5168 O   0  0  0  0  0  0  0  0  0  0  0  0
    3.4934   -6.3367   -1.0115 N   0  0  0  0  0  0  0  0  0  0  0  0
   -2.3082    0.2634   -0.3177 H   0  0  0  0  0  0  0  0  0  0  0  0
   -1.1653   -1.9030   -0.6735 H   0  0  0  0  0  0  0  0  0  0  0  0
    2.3977   -0.0898    0.9893 H   0  0  0  0  0  0  0  0  0  0  0  0
   -1.0311    2.1461    0.7128 H   0  0  0  0  0  0  0  0  0  0  0  0
    2.8432   -2.2845    1.5736 H   0  0  0  0  0  0  0  0  0  0  0  0
    0.5372   -3.9423   -2.8783 H   0  0  0  0  0  0  0  0  0  0  0  0
    0.1676   -2.3438   -2.4773 H   0  0  0  0  0  0  0  0  0  0  0  0
    4.0158   -5.9822   -0.2191 H   0  0  0  0  0  0  0  0  0  0  0  0
    3.7734   -7.1819   -1.4841 H   0  0  0  0  0  0  0  0  0  0  0  0
  1  2  2  0  0  0  0
  1  6  1  0  0  0  0
  1 16  1  0  0  0  0
  2  3  1  0  0  0  0
  2 17  1  0  0  0  0
  3  4  2  0  0  0  0
  3  7  1  0  0  0  0
  4  5  1  0  0  0  0
  4 18  1  0  0  0  0
  5  6  2  0  0  0  0
  6 19  1  0  0  0  0
  7  8  1  0  0  0  0
  7 11  1  0  0  0  0
  8  9  2  0  0  0  0
  8 20  1  0  0  0  0
  9 10  1  0  0  0  0
 10 11  2  0  0  0  0
 10 13  1  0  0  0  0
 11 12  1  0  0  0  0
 12 21  1  0  0  0  0
 12 22  1  0  0  0  0
 13 14  2  0  0  0  0
 13 15  1  0  0  0  0
 15 23  1  0  0  0  0
 15 24  1  0  0  0  0
M  END
$$$$
Target_lig_1121
 OpenBabel05122505473D

 18 18  0  0  0  0  0  0  0  0999 V2000
   -0.7107    1.2606    0.1274 C   0  0  0  0  0  0  0  0  0  0  0  0
   -1.3526    0.0309    0.0317 C   0  0  0  0  0  0  0  0  0  0  0  0
   -0.7049   -1.1381   -0.0388 N   0  0  0  0  0  0  0  0  0  0  0  0
    0.6305   -1.0735   -0.0761 C   0  0  0  0  0  0  0  0  0  0  0  0
    1.3591    0.0457   -0.0183 N   0  0  0  0  0  0  0  0  0  0  0  0
    0.6762    1.1947    0.0496 C   0  0  0  0  0  0  0  0  0  0  0  0
    1.4346    2.3798    0.0825 N   0  0  0  0  0  0  0  0  0  0  0  0
    1.3174   -2.2680   -0.1646 N   0  0  0  0  0  0  0  0  0  0  0  0
   -2.7589   -0.0259    0.0472 N   0  0  0  0  0  0  0  0  0  0  0  0
   -1.4158    2.4904    0.0654 N   0  0  0  0  0  0  0  0  0  0  0  0
    2.4071    2.1092   -0.0424 H   0  0  0  0  0  0  0  0  0  0  0  0
    1.1158    2.9978   -0.6588 H   0  0  0  0  0  0  0  0  0  0  0  0
    0.7486   -3.0172    0.2037 H   0  0  0  0  0  0  0  0  0  0  0  0
    2.2451   -2.1570    0.2161 H   0  0  0  0  0  0  0  0  0  0  0  0
   -3.1233    0.5686   -0.6919 H   0  0  0  0  0  0  0  0  0  0  0  0
   -3.0146   -1.0005   -0.0898 H   0  0  0  0  0  0  0  0  0  0  0  0
   -2.3281    2.3788    0.5070 H   0  0  0  0  0  0  0  0  0  0  0  0
   -0.8646    3.2187    0.5185 H   0  0  0  0  0  0  0  0  0  0  0  0
  1  2  2  0  0  0  0
  1  6  1  0  0  0  0
  1 10  1  0  0  0  0
  2  3  1  0  0  0  0
  2  9  1  0  0  0  0
  3  4  2  0  0  0  0
  4  5  1  0  0  0  0
  4  8  1  0  0  0  0
  5  6  2  0  0  0  0
  6  7  1  0  0  0  0
  7 11  1  0  0  0  0
  7 12  1  0  0  0  0
  8 13  1  0  0  0  0
  8 14  1  0  0  0  0
  9 15  1  0  0  0  0
  9 16  1  0  0  0  0
 10 17  1  0  0  0  0
 10 18  1  0  0  0  0
M  END
$$$$
Target_lig_1122
 OpenBabel05122505473D

 14 14  0  0  0  0  0  0  0  0999 V2000
    1.1487   -1.1545    0.1209 C   0  0  0  0  0  0  0  0  0  0  0  0
   -0.1031   -1.7084    0.0262 C   0  0  0  0  0  0  0  0  0  0  0  0
   -1.2251   -0.9807   -0.1012 N   0  0  0  0  0  0  0  0  0  0  0  0
   -1.0662    0.3445   -0.1407 C   0  0  0  0  0  0  0  0  0  0  0  0
    0.1048    0.9813   -0.0388 N   0  0  0  0  0  0  0  0  0  0  0  0
    1.1986    0.2188    0.0774 C   0  0  0  0  0  0  0  0  0  0  0  0
    2.4182    0.8820    0.2196 N   0  0  0  0  0  0  0  0  0  0  0  0
   -2.2086    1.1138   -0.2421 N   0  0  0  0  0  0  0  0  0  0  0  0
    2.0344   -1.7624    0.2362 H   0  0  0  0  0  0  0  0  0  0  0  0
   -0.2463   -2.7841    0.0562 H   0  0  0  0  0  0  0  0  0  0  0  0
    2.2412    1.8762    0.0955 H   0  0  0  0  0  0  0  0  0  0  0  0
    3.1211    0.5384   -0.4244 H   0  0  0  0  0  0  0  0  0  0  0  0
   -2.9922    0.5883    0.1172 H   0  0  0  0  0  0  0  0  0  0  0  0
   -2.0370    2.0224    0.1658 H   0  0  0  0  0  0  0  0  0  0  0  0
  1  2  2  0  0  0  0
  1  6  1  0  0  0  0
  1  9  1  0  0  0  0
  2  3  1  0  0  0  0
  2 10  1  0  0  0  0
  3  4  2  0  0  0  0
  4  5  1  0  0  0  0
  4  8  1  0  0  0  0
  5  6  2  0  0  0  0
  6  7  1  0  0  0  0
  7 11  1  0  0  0  0
  7 12  1  0  0  0  0
  8 13  1  0  0  0  0
  8 14  1  0  0  0  0
M  END
$$$$
Target_lig_1123
 OpenBabel05122505473D

 15 15  0  0  0  0  0  0  0  0999 V2000
    1.2447   -0.0416    0.1611 N   0  0  0  0  0  0  0  0  0  0  0  0
    2.6202   -0.0117    0.0232 C   0  0  0  0  0  0  0  0  0  0  0  0
    3.2483   -1.1727   -0.0543 N   0  0  0  0  0  0  0  0  0  0  0  0
    4.5592   -1.0841   -0.2013 C   0  0  0  0  0  0  0  0  0  0  0  0
    5.2666   -2.2682   -0.2846 N   0  0  0  0  0  0  0  0  0  0  0  0
    5.2465    0.0439   -0.2516 N   0  0  0  0  0  0  0  0  0  0  0  0
    4.5112    1.1430   -0.2063 C   0  0  0  0  0  0  0  0  0  0  0  0
    3.1978    1.1745   -0.0578 N   0  0  0  0  0  0  0  0  0  0  0  0
    5.1682    2.3545   -0.2986 N   0  0  0  0  0  0  0  0  0  0  0  0
    0.8840   -0.9113   -0.2070 H   0  0  0  0  0  0  0  0  0  0  0  0
    0.8456    0.8109   -0.2072 H   0  0  0  0  0  0  0  0  0  0  0  0
    4.7435   -3.0250    0.1314 H   0  0  0  0  0  0  0  0  0  0  0  0
    6.2213   -2.1347    0.0217 H   0  0  0  0  0  0  0  0  0  0  0  0
    6.1283    2.2642    0.0005 H   0  0  0  0  0  0  0  0  0  0  0  0
    4.6142    3.0919    0.1142 H   0  0  0  0  0  0  0  0  0  0  0  0
  1  2  1  0  0  0  0
  1 10  1  0  0  0  0
  1 11  1  0  0  0  0
  2  3  1  0  0  0  0
  2  8  2  0  0  0  0
  3  4  2  0  0  0  0
  4  5  1  0  0  0  0
  4  6  1  0  0  0  0
  5 12  1  0  0  0  0
  5 13  1  0  0  0  0
  6  7  2  0  0  0  0
  7  8  1  0  0  0  0
  7  9  1  0  0  0  0
  9 14  1  0  0  0  0
  9 15  1  0  0  0  0
M  END
$$$$
Target_lig_1153
 OpenBabel05122505473D

 46 48  0  0  1  0  0  0  0  0999 V2000
    3.8300   -1.5697   -0.4140 C   0  0  0  0  0  0  0  0  0  0  0  0
    3.0996   -2.4666   -1.1129 N   0  0  0  0  0  0  0  0  0  0  0  0
    1.8666   -2.1008   -1.5329 C   0  0  0  0  0  0  0  0  0  0  0  0
    1.3842   -0.8318   -1.1754 C   0  0  0  0  0  0  0  0  0  0  0  0
    2.2552   -0.0120   -0.4790 C   0  0  0  0  0  0  0  0  0  0  0  0
    3.4980   -0.3153   -0.0688 N   0  0  0  0  0  0  0  0  0  0  0  0
    1.5954    1.1785   -0.3549 N   0  0  0  0  0  0  0  0  0  0  0  0
    0.3487    1.0170   -0.8981 C   0  0  0  0  0  0  0  0  0  0  0  0
    0.1814   -0.1886   -1.4001 N   0  0  0  0  0  0  0  0  0  0  0  0
    2.1860    2.4079    0.1190 C   0  0  3  0  0  0  0  0  0  0  0  0
    1.5987    2.9728    1.4079 C   0  0  3  0  0  0  0  0  0  0  0  0
    1.7013    4.4931    1.2151 C   0  0  3  0  0  0  0  0  0  0  0  0
    2.1790    4.6900   -0.2316 C   0  0  3  0  0  0  0  0  0  0  0  0
    1.9709    3.4234   -0.8782 O   0  0  0  0  0  0  0  0  0  0  0  0
    3.6527    5.1245   -0.3471 C   0  0  0  0  0  0  0  0  0  0  0  0
    4.1077    5.4055   -2.0932 S   0  0  0  0  0  0  0  0  0  0  0  0
    5.8792    5.7742   -1.8766 C   0  0  0  0  0  0  0  0  0  0  0  0
    6.5823    5.9822   -3.2228 C   0  0  0  0  0  0  0  0  0  0  0  0
    5.9685    7.0576   -4.1310 C   0  0  3  0  0  0  0  0  0  0  0  0
    5.9746    8.4326   -3.4298 C   0  0  0  0  0  0  0  0  0  0  0  0
    6.8961    9.2265   -3.4842 O   0  0  0  0  0  0  0  0  0  0  0  0
    4.8472    8.6719   -2.7197 O   0  0  0  0  0  0  0  0  0  0  0  0
    6.7443    7.1368   -5.3887 N   0  0  0  0  0  0  0  0  0  0  0  0
    2.5726    5.0529    2.1993 O   0  0  0  0  0  0  0  0  0  0  0  0
    2.3145    2.5481    2.5681 O   0  0  0  0  0  0  0  0  0  0  0  0
    1.1434   -2.9994   -2.3042 N   0  0  0  0  0  0  0  0  0  0  0  0
    4.8123   -1.9064   -0.0978 H   0  0  0  0  0  0  0  0  0  0  0  0
   -0.3833    1.8150   -0.9278 H   0  0  0  0  0  0  0  0  0  0  0  0
    3.2655    2.2497    0.2182 H   0  0  0  0  0  0  0  0  0  0  0  0
    0.5492    2.6830    1.5343 H   0  0  0  0  0  0  0  0  0  0  0  0
    0.7078    4.9399    1.3422 H   0  0  0  0  0  0  0  0  0  0  0  0
    1.5386    5.4264   -0.7320 H   0  0  0  0  0  0  0  0  0  0  0  0
    4.3185    4.3606    0.0668 H   0  0  0  0  0  0  0  0  0  0  0  0
    3.8156    6.0675    0.1826 H   0  0  0  0  0  0  0  0  0  0  0  0
    6.3586    4.9438   -1.3467 H   0  0  0  0  0  0  0  0  0  0  0  0
    5.9781    6.6673   -1.2513 H   0  0  0  0  0  0  0  0  0  0  0  0
    6.6029    5.0251   -3.7610 H   0  0  0  0  0  0  0  0  0  0  0  0
    7.6302    6.2351   -3.0107 H   0  0  0  0  0  0  0  0  0  0  0  0
    4.9441    6.8108   -4.4223 H   0  0  0  0  0  0  0  0  0  0  0  0
    4.1888    7.9430   -2.7750 H   0  0  0  0  0  0  0  0  0  0  0  0
    7.6829    7.4708   -5.1608 H   0  0  0  0  0  0  0  0  0  0  0  0
    6.3532    7.8825   -5.9684 H   0  0  0  0  0  0  0  0  0  0  0  0
    2.6179    6.0166    2.0571 H   0  0  0  0  0  0  0  0  0  0  0  0
    2.7013    3.3629    2.9563 H   0  0  0  0  0  0  0  0  0  0  0  0
    1.4584   -3.9534   -2.1955 H   0  0  0  0  0  0  0  0  0  0  0  0
    0.1472   -2.8167   -2.3219 H   0  0  0  0  0  0  0  0  0  0  0  0
  1  2  2  0  0  0  0
  1  6  1  0  0  0  0
  1 27  1  0  0  0  0
  2  3  1  0  0  0  0
  3  4  2  0  0  0  0
  3 26  1  0  0  0  0
  4  5  1  0  0  0  0
  4  9  1  0  0  0  0
  5  6  2  0  0  0  0
  5  7  1  0  0  0  0
  7  8  1  0  0  0  0
  7 10  1  0  0  0  0
  8  9  2  0  0  0  0
  8 28  1  0  0  0  0
 10 11  1  0  0  0  0
 10 14  1  0  0  0  0
 10 29  1  0  0  0  0
 11 12  1  0  0  0  0
 11 25  1  0  0  0  0
 11 30  1  0  0  0  0
 12 13  1  0  0  0  0
 12 24  1  0  0  0  0
 12 31  1  0  0  0  0
 13 14  1  0  0  0  0
 13 15  1  0  0  0  0
 13 32  1  0  0  0  0
 15 16  1  0  0  0  0
 15 33  1  0  0  0  0
 15 34  1  0  0  0  0
 16 17  1  0  0  0  0
 17 18  1  0  0  0  0
 17 35  1  0  0  0  0
 17 36  1  0  0  0  0
 18 19  1  0  0  0  0
 18 37  1  0  0  0  0
 18 38  1  0  0  0  0
 19 20  1  0  0  0  0
 19 23  1  0  0  0  0
 19 39  1  0  0  0  0
 20 21  2  0  0  0  0
 20 22  1  0  0  0  0
 22 40  1  0  0  0  0
 23 41  1  0  0  0  0
 23 42  1  0  0  0  0
 24 43  1  0  0  0  0
 25 44  1  0  0  0  0
 26 45  1  0  0  0  0
 26 46  1  0  0  0  0
M  END
$$$$
Target_lig_1154
 OpenBabel05122505473D

 43 45  0  0  1  0  0  0  0  0999 V2000
    3.1022   -1.6598    1.1933 C   0  0  0  0  0  0  0  0  0  0  0  0
    2.5585   -2.6389    0.4367 N   0  0  0  0  0  0  0  0  0  0  0  0
    1.6793   -2.2828   -0.5279 C   0  0  0  0  0  0  0  0  0  0  0  0
    1.3380   -0.9295   -0.6564 C   0  0  0  0  0  0  0  0  0  0  0  0
    1.9974   -0.0398    0.1766 C   0  0  0  0  0  0  0  0  0  0  0  0
    2.8987   -0.3236    1.1282 N   0  0  0  0  0  0  0  0  0  0  0  0
    1.5685    1.2019   -0.2248 N   0  0  0  0  0  0  0  0  0  0  0  0
    0.6237    1.0082   -1.1998 C   0  0  0  0  0  0  0  0  0  0  0  0
    0.4540   -0.2666   -1.4825 N   0  0  0  0  0  0  0  0  0  0  0  0
    2.1835    2.4546    0.1497 C   0  0  3  0  0  0  0  0  0  0  0  0
    1.6309    3.1335    1.4129 C   0  0  3  0  0  0  0  0  0  0  0  0
    1.6035    4.6255    1.0528 C   0  0  3  0  0  0  0  0  0  0  0  0
    2.1439    4.7136   -0.3753 C   0  0  3  0  0  0  0  0  0  0  0  0
    1.9894    3.3947   -0.9222 O   0  0  0  0  0  0  0  0  0  0  0  0
    3.6149    5.1622   -0.4525 C   0  0  0  0  0  0  0  0  0  0  0  0
    4.2836    5.1550   -2.1560 S   0  0  0  0  0  0  0  0  0  0  0  0
    3.2606    6.4859   -2.8914 C   0  0  0  0  0  0  0  0  0  0  0  0
    3.6168    6.7497   -4.3668 C   0  0  3  0  0  0  0  0  0  0  0  0
    2.6262    7.7762   -4.9414 C   0  0  0  0  0  0  0  0  0  0  0  0
    1.7399    8.3324   -4.3108 O   0  0  0  0  0  0  0  0  0  0  0  0
    2.8343    8.0243   -6.2591 O   0  0  0  0  0  0  0  0  0  0  0  0
    5.0049    7.2309   -4.5413 N   0  0  0  0  0  0  0  0  0  0  0  0
    2.3340    5.4505    1.9549 O   0  0  0  0  0  0  0  0  0  0  0  0
    2.4023    2.9470    2.6069 O   0  0  0  0  0  0  0  0  0  0  0  0
    1.1755   -3.2746   -1.3590 N   0  0  0  0  0  0  0  0  0  0  0  0
    3.7953   -1.9997    1.9640 H   0  0  0  0  0  0  0  0  0  0  0  0
    0.1284    1.8292   -1.7002 H   0  0  0  0  0  0  0  0  0  0  0  0
    3.2605    2.2661    0.2441 H   0  0  0  0  0  0  0  0  0  0  0  0
    0.6100    2.7911    1.6235 H   0  0  0  0  0  0  0  0  0  0  0  0
    0.5618    4.9673    1.0586 H   0  0  0  0  0  0  0  0  0  0  0  0
    1.5106    5.3961   -0.9512 H   0  0  0  0  0  0  0  0  0  0  0  0
    4.2484    4.4729    0.1170 H   0  0  0  0  0  0  0  0  0  0  0  0
    3.7551    6.1619   -0.0286 H   0  0  0  0  0  0  0  0  0  0  0  0
    3.3858    7.3970   -2.2948 H   0  0  0  0  0  0  0  0  0  0  0  0
    2.2090    6.1875   -2.8323 H   0  0  0  0  0  0  0  0  0  0  0  0
    3.4804    5.8218   -4.9356 H   0  0  0  0  0  0  0  0  0  0  0  0
    3.5434    7.4716   -6.6369 H   0  0  0  0  0  0  0  0  0  0  0  0
    5.1234    8.1268   -4.0660 H   0  0  0  0  0  0  0  0  0  0  0  0
    5.2651    7.3635   -5.5118 H   0  0  0  0  0  0  0  0  0  0  0  0
    2.7324    4.8599    2.6256 H   0  0  0  0  0  0  0  0  0  0  0  0
    3.3001    2.6440    2.3816 H   0  0  0  0  0  0  0  0  0  0  0  0
    1.2407   -4.2044   -0.9692 H   0  0  0  0  0  0  0  0  0  0  0  0
    0.3370   -3.0133   -1.8634 H   0  0  0  0  0  0  0  0  0  0  0  0
  1  2  2  0  0  0  0
  1  6  1  0  0  0  0
  1 26  1  0  0  0  0
  2  3  1  0  0  0  0
  3  4  2  0  0  0  0
  3 25  1  0  0  0  0
  4  5  1  0  0  0  0
  4  9  1  0  0  0  0
  5  6  2  0  0  0  0
  5  7  1  0  0  0  0
  7  8  1  0  0  0  0
  7 10  1  0  0  0  0
  8  9  2  0  0  0  0
  8 27  1  0  0  0  0
 10 11  1  0  0  0  0
 10 14  1  0  0  0  0
 10 28  1  0  0  0  0
 11 12  1  0  0  0  0
 11 24  1  0  0  0  0
 11 29  1  0  0  0  0
 12 13  1  0  0  0  0
 12 23  1  0  0  0  0
 12 30  1  0  0  0  0
 13 14  1  0  0  0  0
 13 15  1  0  0  0  0
 13 31  1  0  0  0  0
 15 16  1  0  0  0  0
 15 32  1  0  0  0  0
 15 33  1  0  0  0  0
 16 17  1  0  0  0  0
 17 18  1  0  0  0  0
 17 34  1  0  0  0  0
 17 35  1  0  0  0  0
 18 19  1  0  0  0  0
 18 22  1  0  0  0  0
 18 36  1  0  0  0  0
 19 20  2  0  0  0  0
 19 21  1  0  0  0  0
 21 37  1  0  0  0  0
 22 38  1  0  0  0  0
 22 39  1  0  0  0  0
 23 40  1  0  0  0  0
 24 41  1  0  0  0  0
 25 42  1  0  0  0  0
 25 43  1  0  0  0  0
M  END
$$$$
Target_lig_74
 OpenBabel05122505473D

 56 59  0  0  1  0  0  0  0  0999 V2000
    0.2674   -0.2759    0.2939 C   0  0  0  0  0  0  0  0  0  0  0  0
    1.7824   -0.2416    0.1969 C   0  0  3  0  0  0  0  0  0  0  0  0
    2.4458    1.0828    0.7122 C   0  0  3  0  0  0  0  0  0  0  0  0
    1.8409    2.6380    0.7794 C   0  0  0  0  0  0  0  0  0  0  0  0
    3.0802    3.8801    0.9826 C   0  0  3  0  0  0  0  0  0  0  0  0
    3.2976    5.1489    0.0246 C   0  0  3  0  0  0  0  0  0  0  0  0
    2.5846    4.7940   -1.2119 C   0  0  0  0  0  0  0  0  0  0  0  0
    1.7052    5.4833   -1.7196 O   0  0  0  0  0  0  0  0  0  0  0  0
    3.1161    3.4897   -1.7859 C   0  0  0  0  0  0  0  0  0  0  0  0
    4.0396    2.7865   -1.0140 C   0  0  0  0  0  0  0  0  0  0  0  0
    4.3248    3.0441    0.6392 C   0  0  3  0  0  0  0  0  0  0  0  0
    4.2756    2.0905    1.9123 C   0  0  0  0  0  0  0  0  0  0  0  0
    4.7982    2.3935    2.9899 O   0  0  0  0  0  0  0  0  0  0  0  0
    3.4006    0.9083    1.8275 C   0  0  0  0  0  0  0  0  0  0  0  0
    3.6960   -0.1995    2.5047 C   0  0  0  0  0  0  0  0  0  0  0  0
    3.2623   -1.5161    1.9449 C   0  0  0  0  0  0  0  0  0  0  0  0
    2.4323   -1.5227    0.7779 C   0  0  0  0  0  0  0  0  0  0  0  0
    2.2483   -2.7587    0.1077 C   0  0  0  0  0  0  0  0  0  0  0  0
    2.8614   -3.9396    0.5270 C   0  0  0  0  0  0  0  0  0  0  0  0
    3.6349   -3.9398    1.6759 C   0  0  0  0  0  0  0  0  0  0  0  0
    3.8313   -2.7520    2.3756 C   0  0  0  0  0  0  0  0  0  0  0  0
    4.6421   -2.8119    3.4868 O   0  0  0  0  0  0  0  0  0  0  0  0
    4.5774   -0.2203    3.5575 O   0  0  0  0  0  0  0  0  0  0  0  0
    5.5832    3.6934    0.7908 O   0  0  0  0  0  0  0  0  0  0  0  0
    4.7192    1.7044   -1.5560 O   0  0  0  0  0  0  0  0  0  0  0  0
    2.5094    3.0580   -3.0796 C   0  0  0  0  0  0  0  0  0  0  0  0
    2.3115    1.8766   -3.3418 O   0  0  0  0  0  0  0  0  0  0  0  0
    2.0137    4.0541   -3.8853 N   0  0  0  0  0  0  0  0  0  0  0  0
    4.1043    6.3975    0.0665 N   0  0  0  0  0  0  0  0  0  0  0  0
    4.5943    6.8911   -1.2381 C   0  0  0  0  0  0  0  0  0  0  0  0
    3.7940    7.4484    0.9864 C   0  0  0  0  0  0  0  0  0  0  0  0
    2.0345   -0.3808   -1.2319 O   0  0  0  0  0  0  0  0  0  0  0  0
   -0.0852   -0.3140    1.3249 H   0  0  0  0  0  0  0  0  0  0  0  0
   -0.1306   -1.1532   -0.2369 H   0  0  0  0  0  0  0  0  0  0  0  0
   -0.1666    0.5899   -0.2172 H   0  0  0  0  0  0  0  0  0  0  0  0
    3.1535    1.1327   -0.0827 H   0  0  0  0  0  0  0  0  0  0  0  0
    1.1772    2.7139    1.6520 H   0  0  0  0  0  0  0  0  0  0  0  0
    1.2231    2.8351   -0.1018 H   0  0  0  0  0  0  0  0  0  0  0  0
    3.0081    4.2444    2.0152 H   0  0  0  0  0  0  0  0  0  0  0  0
    4.2543    4.8324   -0.3735 H   0  0  0  0  0  0  0  0  0  0  0  0
    1.6769   -2.7799   -0.8200 H   0  0  0  0  0  0  0  0  0  0  0  0
    2.7483   -4.8490   -0.0563 H   0  0  0  0  0  0  0  0  0  0  0  0
    4.1093   -4.8671    1.9888 H   0  0  0  0  0  0  0  0  0  0  0  0
    5.0163   -3.7028    3.5768 H   0  0  0  0  0  0  0  0  0  0  0  0
    4.7595    0.6975    3.8388 H   0  0  0  0  0  0  0  0  0  0  0  0
    5.5921    4.1013    1.6837 H   0  0  0  0  0  0  0  0  0  0  0  0
    5.5242    1.5507   -1.0304 H   0  0  0  0  0  0  0  0  0  0  0  0
    1.8551    4.9906   -3.4922 H   0  0  0  0  0  0  0  0  0  0  0  0
    1.3693    3.7948   -4.6076 H   0  0  0  0  0  0  0  0  0  0  0  0
    4.9245    6.0760   -1.8985 H   0  0  0  0  0  0  0  0  0  0  0  0
    5.4856    7.5169   -1.1098 H   0  0  0  0  0  0  0  0  0  0  0  0
    3.8321    7.4635   -1.7736 H   0  0  0  0  0  0  0  0  0  0  0  0
    3.6286    7.0542    1.9902 H   0  0  0  0  0  0  0  0  0  0  0  0
    2.9366    8.0366    0.6575 H   0  0  0  0  0  0  0  0  0  0  0  0
    4.6609    8.1216    1.0618 H   0  0  0  0  0  0  0  0  0  0  0  0
    2.5082    0.3750   -1.6286 H   0  0  0  0  0  0  0  0  0  0  0  0
  1  2  1  0  0  0  0
  1 33  1  0  0  0  0
  1 34  1  0  0  0  0
  1 35  1  0  0  0  0
  2  3  1  0  0  0  0
  2 17  1  0  0  0  0
  2 32  1  0  0  0  0
  3  4  1  0  0  0  0
  3 14  1  0  0  0  0
  3 36  1  0  0  0  0
  4  5  1  0  0  0  0
  4 37  1  0  0  0  0
  4 38  1  0  0  0  0
  5  6  1  0  0  0  0
  5 11  1  0  0  0  0
  5 39  1  0  0  0  0
  6  7  1  0  0  0  0
  6 29  1  0  0  0  0
  6 40  1  0  0  0  0
  7  8  2  0  0  0  0
  7  9  1  0  0  0  0
  9 10  2  0  0  0  0
  9 26  1  0  0  0  0
 10 11  1  0  0  0  0
 10 25  1  0  0  0  0
 11 12  1  0  0  0  0
 11 24  1  0  0  0  0
 12 13  2  0  0  0  0
 12 14  1  0  0  0  0
 14 15  2  0  0  0  0
 15 16  1  0  0  0  0
 15 23  1  0  0  0  0
 16 17  2  0  0  0  0
 16 21  1  0  0  0  0
 17 18  1  0  0  0  0
 18 19  2  0  0  0  0
 18 41  1  0  0  0  0
 19 20  1  0  0  0  0
 19 42  1  0  0  0  0
 20 21  2  0  0  0  0
 20 43  1  0  0  0  0
 21 22  1  0  0  0  0
 22 44  1  0  0  0  0
 23 45  1  0  0  0  0
 24 46  1  0  0  0  0
 25 47  1  0  0  0  0
 26 27  2  0  0  0  0
 26 28  1  0  0  0  0
 28 48  1  0  0  0  0
 28 49  1  0  0  0  0
 29 30  1  0  0  0  0
 29 31  1  0  0  0  0
 30 50  1  0  0  0  0
 30 51  1  0  0  0  0
 30 52  1  0  0  0  0
 31 53  1  0  0  0  0
 31 54  1  0  0  0  0
 31 55  1  0  0  0  0
 32 56  1  0  0  0  0
M  END
$$$$
Target_lig_1164
 OpenBabel05122505473D

 56 59  0  0  1  0  0  0  0  0999 V2000
    5.5153    5.2358   -3.0426 C   0  0  0  0  0  0  0  0  0  0  0  0
    4.4108    4.4492   -2.4750 N   0  0  0  0  0  0  0  0  0  0  0  0
    3.6312    5.2912   -1.5562 C   0  0  3  0  0  0  0  0  0  0  0  0
    2.4462    0.8382   -2.2785 C   0  0  0  0  0  0  0  0  0  0  0  0
    1.3958    0.6958   -1.5774 O   0  0  0  0  0  0  0  0  0  0  0  0
    3.5335    1.8016   -1.8314 C   0  0  0  0  0  0  0  0  0  0  0  0
    3.3824    2.5114   -0.6807 C   0  0  0  0  0  0  0  0  0  0  0  0
    4.4697    3.4748   -0.2336 C   0  0  3  0  0  0  0  0  0  0  0  0
    3.9230    4.8809   -0.1220 C   0  0  3  0  0  0  0  0  0  0  0  0
    3.2365    5.2241    0.9908 C   0  0  0  0  0  0  0  0  0  0  0  0
    3.0314    4.2866    2.0128 C   0  0  3  0  0  0  0  0  0  0  0  0
    3.8686    3.2169    2.1397 C   0  0  0  0  0  0  0  0  0  0  0  0
    3.7259    2.3174    3.0673 C   0  0  0  0  0  0  0  0  0  0  0  0
    4.6449    1.2364    3.1244 O   0  0  0  0  0  0  0  0  0  0  0  0
    2.7273    2.3792    3.9817 C   0  0  0  0  0  0  0  0  0  0  0  0
    1.8124    3.4567    3.9250 C   0  0  0  0  0  0  0  0  0  0  0  0
    1.9975    4.4585    2.8679 C   0  0  3  0  0  0  0  0  0  0  0  0
    0.7562    4.3347    1.9995 C   0  0  0  0  0  0  0  0  0  0  0  0
    2.1765    5.7163    3.5023 O   0  0  0  0  0  0  0  0  0  0  0  0
    0.7759    3.5453    4.8532 C   0  0  0  0  0  0  0  0  0  0  0  0
   -0.3698    4.9059    4.7865 Cl  0  0  0  0  0  0  0  0  0  0  0  0
    0.6435    2.5838    5.8140 C   0  0  0  0  0  0  0  0  0  0  0  0
    1.5420    1.5193    5.8824 C   0  0  0  0  0  0  0  0  0  0  0  0
    2.5784    1.4110    4.9729 C   0  0  0  0  0  0  0  0  0  0  0  0
    3.4846    0.3204    5.0487 O   0  0  0  0  0  0  0  0  0  0  0  0
    5.0100    3.0775    1.1513 C   0  0  0  0  0  0  0  0  0  0  0  0
    6.1946    2.7018    1.4177 O   0  0  0  0  0  0  0  0  0  0  0  0
    5.5170    3.4364   -1.1919 O   0  0  0  0  0  0  0  0  0  0  0  0
    2.2087    2.3523    0.1026 O   0  0  0  0  0  0  0  0  0  0  0  0
    2.4462    0.8382   -2.2785 C   0  0  0  0  0  0  0  0  0  0  0  0
    2.3852    0.4680   -3.4928 O   0  0  0  0  0  0  0  0  0  0  0  0
    1.4651    0.3347   -1.3064 N   0  0  0  0  0  0  0  0  0  0  0  0
    3.5410    3.9722   -3.5598 C   0  0  0  0  0  0  0  0  0  0  0  0
    6.1484    5.5830   -2.2530 H   0  0  0  0  0  0  0  0  0  0  0  0
    5.1187    6.0740   -3.5765 H   0  0  0  0  0  0  0  0  0  0  0  0
    6.0828    4.6230   -3.7114 H   0  0  0  0  0  0  0  0  0  0  0  0
    3.3624    6.3226   -1.6501 H   0  0  0  0  0  0  0  0  0  0  0  0
    4.5664    5.6521    0.2470 H   0  0  0  0  0  0  0  0  0  0  0  0
    2.2678    5.5439    0.6680 H   0  0  0  0  0  0  0  0  0  0  0  0
    3.8709    5.9515    1.4526 H   0  0  0  0  0  0  0  0  0  0  0  0
    3.3906    3.3300    2.3302 H   0  0  0  0  0  0  0  0  0  0  0  0
    5.3407    1.1794    2.4995 H   0  0  0  0  0  0  0  0  0  0  0  0
    0.7168    3.3550    1.5712 H   0  0  0  0  0  0  0  0  0  0  0  0
    0.7934    5.0644    1.2179 H   0  0  0  0  0  0  0  0  0  0  0  0
   -0.1156    4.4976    2.5982 H   0  0  0  0  0  0  0  0  0  0  0  0
    2.9897    5.6991    4.0307 H   0  0  0  0  0  0  0  0  0  0  0  0
   -0.1287    2.6454    6.4958 H   0  0  0  0  0  0  0  0  0  0  0  0
    1.4324    0.8051    6.6193 H   0  0  0  0  0  0  0  0  0  0  0  0
    3.3816   -0.3288    5.7164 H   0  0  0  0  0  0  0  0  0  0  0  0
    5.1688    3.6879   -2.0616 H   0  0  0  0  0  0  0  0  0  0  0  0
    1.5384    1.7584   -0.1730 H   0  0  0  0  0  0  0  0  0  0  0  0
    1.5124    0.6215   -0.3658 H   0  0  0  0  0  0  0  0  0  0  0  0
    0.7609   -0.2893   -1.5960 H   0  0  0  0  0  0  0  0  0  0  0  0
    4.1085    3.3593   -4.2286 H   0  0  0  0  0  0  0  0  0  0  0  0
    3.1444    4.8103   -4.0938 H   0  0  0  0  0  0  0  0  0  0  0  0
    2.7370    3.3996   -3.1467 H   0  0  0  0  0  0  0  0  0  0  0  0
  1  2  1  0  0  0  0
  1 34  1  0  0  0  0
  1 35  1  0  0  0  0
  1 36  1  0  0  0  0
  2  3  1  0  0  0  0
  2 33  1  0  0  0  0
  3  4  1  0  0  0  0
  3  9  1  0  0  0  0
  3 37  1  0  0  0  0
  4  5  2  0  0  0  0
  4  6  1  0  0  0  0
  6  7  2  3  0  0  0
  6 30  1  0  0  0  0
  7  8  1  0  0  0  0
  7 29  1  0  0  0  0
  8  9  1  0  0  0  0
  8 26  1  0  0  0  0
  8 28  1  0  0  0  0
  9 10  1  0  0  0  0
  9 38  1  0  0  0  0
 10 11  1  0  0  0  0
 10 39  1  0  0  0  0
 10 40  1  0  0  0  0
 11 12  1  0  0  0  0
 11 17  1  0  0  0  0
 11 41  1  0  0  0  0
 12 13  2  0  0  0  0
 12 26  1  0  0  0  0
 13 14  1  0  0  0  0
 13 15  1  0  0  0  0
 14 42  1  0  0  0  0
 15 16  1  0  0  0  0
 15 24  2  0  0  0  0
 16 17  1  0  0  0  0
 16 20  2  0  0  0  0
 17 18  1  0  0  0  0
 17 19  1  0  0  0  0
 18 43  1  0  0  0  0
 18 44  1  0  0  0  0
 18 45  1  0  0  0  0
 19 46  1  0  0  0  0
 20 21  1  0  0  0  0
 20 22  1  0  0  0  0
 22 23  2  0  0  0  0
 22 47  1  0  0  0  0
 23 24  1  0  0  0  0
 23 48  1  0  0  0  0
 24 25  1  0  0  0  0
 25 49  1  0  0  0  0
 26 27  2  0  0  0  0
 28 50  1  0  0  0  0
 29 51  1  0  0  0  0
 30 31  2  0  0  0  0
 30 32  1  0  0  0  0
 32 52  1  0  0  0  0
 32 53  1  0  0  0  0
 33 54  1  0  0  0  0
 33 55  1  0  0  0  0
 33 56  1  0  0  0  0
M  END
$$$$
Target_lig_1165
 OpenBabel05122505473D

 48 51  0  0  1  0  0  0  0  0999 V2000
    1.0541   -0.6392    0.8417 N   0  0  0  0  0  0  0  0  0  0  0  0
    2.2984   -1.0740    0.5225 C   0  0  0  0  0  0  0  0  0  0  0  0
    3.1750   -1.1686    1.3788 O   0  0  0  0  0  0  0  0  0  0  0  0
    2.5810   -1.3255   -0.9215 C   0  0  0  0  0  0  0  0  0  0  0  0
    3.8436   -1.6362   -1.3136 C   0  0  0  0  0  0  0  0  0  0  0  0
    4.8830   -1.8527   -0.4104 O   0  0  0  0  0  0  0  0  0  0  0  0
    4.3080   -1.5090   -2.7682 C   0  0  3  0  0  0  0  0  0  0  0  0
    3.4213   -0.4947   -3.5229 C   0  0  3  0  0  0  0  0  0  0  0  0
    1.9654   -0.9459   -3.4130 C   0  0  0  0  0  0  0  0  0  0  0  0
    1.5461   -1.0633   -1.9772 C   0  0  0  0  0  0  0  0  0  0  0  0
    0.3545   -0.9628   -1.6685 O   0  0  0  0  0  0  0  0  0  0  0  0
    3.6288    0.9829   -3.0385 C   0  0  0  0  0  0  0  0  0  0  0  0
    4.6930    1.1477   -1.9125 C   0  0  3  0  0  0  0  0  0  0  0  0
    5.9588    0.4464   -2.2975 C   0  0  0  0  0  0  0  0  0  0  0  0
    7.1827    0.8858   -1.9787 C   0  0  0  0  0  0  0  0  0  0  0  0
    8.3319    0.2412   -2.3935 O   0  0  0  0  0  0  0  0  0  0  0  0
    7.3447    2.0509   -1.0684 C   0  0  0  0  0  0  0  0  0  0  0  0
    6.2276    2.8782   -0.7761 C   0  0  0  0  0  0  0  0  0  0  0  0
    4.8317    2.5780   -1.3266 C   0  0  3  0  0  0  0  0  0  0  0  0
    3.7661    2.6641   -0.1974 C   0  0  0  0  0  0  0  0  0  0  0  0
    4.4868    3.5479   -2.3164 O   0  0  0  0  0  0  0  0  0  0  0  0
    6.3904    3.9897    0.0837 C   0  0  0  0  0  0  0  0  0  0  0  0
    7.5935    4.2330    0.7351 C   0  0  0  0  0  0  0  0  0  0  0  0
    8.6758    3.3988    0.5039 C   0  0  0  0  0  0  0  0  0  0  0  0
    8.5588    2.3342   -0.3959 C   0  0  0  0  0  0  0  0  0  0  0  0
    9.6598    1.5352   -0.5637 O   0  0  0  0  0  0  0  0  0  0  0  0
    5.7476   -0.9095   -2.9177 C   0  0  0  0  0  0  0  0  0  0  0  0
    6.6338   -1.4508   -3.5817 O   0  0  0  0  0  0  0  0  0  0  0  0
    4.1491   -2.7918   -3.3541 O   0  0  0  0  0  0  0  0  0  0  0  0
    0.8242   -0.4364    1.8054 H   0  0  0  0  0  0  0  0  0  0  0  0
    0.3106   -0.5844    0.1443 H   0  0  0  0  0  0  0  0  0  0  0  0
    4.5560   -1.7285    0.5125 H   0  0  0  0  0  0  0  0  0  0  0  0
    3.6789   -0.5301   -4.5919 H   0  0  0  0  0  0  0  0  0  0  0  0
    1.8124   -1.9215   -3.8971 H   0  0  0  0  0  0  0  0  0  0  0  0
    1.3114   -0.2234   -3.9172 H   0  0  0  0  0  0  0  0  0  0  0  0
    2.6739    1.4104   -2.7097 H   0  0  0  0  0  0  0  0  0  0  0  0
    3.9310    1.5749   -3.9138 H   0  0  0  0  0  0  0  0  0  0  0  0
    4.3523    0.5859   -1.0460 H   0  0  0  0  0  0  0  0  0  0  0  0
    8.0877   -0.5284   -2.9474 H   0  0  0  0  0  0  0  0  0  0  0  0
    4.0114    1.9793    0.6254 H   0  0  0  0  0  0  0  0  0  0  0  0
    2.7716    2.3936   -0.5717 H   0  0  0  0  0  0  0  0  0  0  0  0
    3.6598    3.6681    0.2211 H   0  0  0  0  0  0  0  0  0  0  0  0
    5.3077    3.9770   -2.6169 H   0  0  0  0  0  0  0  0  0  0  0  0
    5.5607    4.6647    0.2856 H   0  0  0  0  0  0  0  0  0  0  0  0
    7.6766    5.0572    1.4394 H   0  0  0  0  0  0  0  0  0  0  0  0
    9.6034    3.5829    1.0383 H   0  0  0  0  0  0  0  0  0  0  0  0
   10.3889    1.8503   -0.0100 H   0  0  0  0  0  0  0  0  0  0  0  0
    4.6279   -2.7834   -4.2024 H   0  0  0  0  0  0  0  0  0  0  0  0
  1  2  1  0  0  0  0
  1 30  1  0  0  0  0
  1 31  1  0  0  0  0
  2  3  2  0  0  0  0
  2  4  1  0  0  0  0
  4  5  2  0  0  0  0
  4 10  1  0  0  0  0
  5  6  1  0  0  0  0
  5  7  1  0  0  0  0
  6 32  1  0  0  0  0
  7  8  1  0  0  0  0
  7 27  1  0  0  0  0
  7 29  1  0  0  0  0
  8  9  1  0  0  0  0
  8 12  1  0  0  0  0
  8 33  1  0  0  0  0
  9 10  1  0  0  0  0
  9 34  1  0  0  0  0
  9 35  1  0  0  0  0
 10 11  2  0  0  0  0
 12 13  1  0  0  0  0
 12 36  1  0  0  0  0
 12 37  1  0  0  0  0
 13 14  1  0  0  0  0
 13 19  1  0  0  0  0
 13 38  1  0  0  0  0
 14 15  2  0  0  0  0
 14 27  1  0  0  0  0
 15 16  1  0  0  0  0
 15 17  1  0  0  0  0
 16 39  1  0  0  0  0
 17 18  1  0  0  0  0
 17 25  2  0  0  0  0
 18 19  1  0  0  0  0
 18 22  2  0  0  0  0
 19 20  1  0  0  0  0
 19 21  1  0  0  0  0
 20 40  1  0  0  0  0
 20 41  1  0  0  0  0
 20 42  1  0  0  0  0
 21 43  1  0  0  0  0
 22 23  1  0  0  0  0
 22 44  1  0  0  0  0
 23 24  2  0  0  0  0
 23 45  1  0  0  0  0
 24 25  1  0  0  0  0
 24 46  1  0  0  0  0
 25 26  1  0  0  0  0
 26 47  1  0  0  0  0
 27 28  2  0  0  0  0
 29 48  1  0  0  0  0
M  END
$$$$
Target_lig_1166
 OpenBabel05122505473D

 49 52  0  0  1  0  0  0  0  0999 V2000
    1.8734    0.4683    1.4612 N   0  0  0  0  0  0  0  0  0  0  0  0
    2.9054    0.1725    0.6284 C   0  0  0  0  0  0  0  0  0  0  0  0
    3.7122    1.0369    0.2933 O   0  0  0  0  0  0  0  0  0  0  0  0
    2.8894   -1.1839   -0.0015 C   0  0  0  0  0  0  0  0  0  0  0  0
    3.6863   -1.4048   -1.0956 C   0  0  0  0  0  0  0  0  0  0  0  0
    4.6814   -0.5185   -1.4964 O   0  0  0  0  0  0  0  0  0  0  0  0
    3.3296   -2.4450   -2.1674 C   0  0  3  0  0  0  0  0  0  0  0  0
    1.8274   -2.7976   -2.0835 C   0  0  3  0  0  0  0  0  0  0  0  0
    1.5284   -3.2823   -0.6600 C   0  0  3  0  0  0  0  0  0  0  0  0
    1.8183   -2.1675    0.3337 C   0  0  0  0  0  0  0  0  0  0  0  0
    1.1680   -2.0571    1.3747 O   0  0  0  0  0  0  0  0  0  0  0  0
    2.2615   -4.4584   -0.3301 O   0  0  0  0  0  0  0  0  0  0  0  0
    0.9001   -1.5966   -2.5324 C   0  0  0  0  0  0  0  0  0  0  0  0
    1.6795   -0.3160   -2.9698 C   0  0  3  0  0  0  0  0  0  0  0  0
    2.7343   -0.6627   -3.9645 C   0  0  0  0  0  0  0  0  0  0  0  0
    3.1299    0.1336   -4.9648 C   0  0  0  0  0  0  0  0  0  0  0  0
    4.0919   -0.2355   -5.8744 O   0  0  0  0  0  0  0  0  0  0  0  0
    2.6138    1.5291   -5.0429 C   0  0  0  0  0  0  0  0  0  0  0  0
    1.4970    1.9154   -4.2530 C   0  0  0  0  0  0  0  0  0  0  0  0
    0.8373    0.9584   -3.2561 C   0  0  3  0  0  0  0  0  0  0  0  0
    0.6825    1.6765   -1.8841 C   0  0  0  0  0  0  0  0  0  0  0  0
   -0.4630    0.5875   -3.7004 O   0  0  0  0  0  0  0  0  0  0  0  0
    1.0209    3.2455   -4.3227 C   0  0  0  0  0  0  0  0  0  0  0  0
    1.6824    4.2143   -5.0655 C   0  0  0  0  0  0  0  0  0  0  0  0
    2.8059    3.8638   -5.7946 C   0  0  0  0  0  0  0  0  0  0  0  0
    3.2558    2.5381   -5.8012 C   0  0  0  0  0  0  0  0  0  0  0  0
    4.3838    2.2682   -6.5297 O   0  0  0  0  0  0  0  0  0  0  0  0
    3.4803   -1.9295   -3.6365 C   0  0  0  0  0  0  0  0  0  0  0  0
    4.0839   -2.5530   -4.5108 O   0  0  0  0  0  0  0  0  0  0  0  0
    4.1173   -3.5948   -1.8921 O   0  0  0  0  0  0  0  0  0  0  0  0
    1.7663    1.4081    1.8187 H   0  0  0  0  0  0  0  0  0  0  0  0
    1.2104   -0.2424    1.7720 H   0  0  0  0  0  0  0  0  0  0  0  0
    4.6904    0.2731   -0.9071 H   0  0  0  0  0  0  0  0  0  0  0  0
    1.6353   -3.6454   -2.7583 H   0  0  0  0  0  0  0  0  0  0  0  0
    0.4683   -3.5448   -0.5819 H   0  0  0  0  0  0  0  0  0  0  0  0
    3.2188   -4.2828   -0.4621 H   0  0  0  0  0  0  0  0  0  0  0  0
    0.1921   -1.3465   -1.7326 H   0  0  0  0  0  0  0  0  0  0  0  0
    0.2842   -1.9514   -3.3706 H   0  0  0  0  0  0  0  0  0  0  0  0
    2.2597    0.0229   -2.1221 H   0  0  0  0  0  0  0  0  0  0  0  0
    4.3680   -1.1581   -5.6988 H   0  0  0  0  0  0  0  0  0  0  0  0
    1.6456    2.0925   -1.5522 H   0  0  0  0  0  0  0  0  0  0  0  0
    0.3322    0.9852   -1.1117 H   0  0  0  0  0  0  0  0  0  0  0  0
   -0.0440    2.4933   -1.9002 H   0  0  0  0  0  0  0  0  0  0  0  0
   -0.5674    0.8887   -4.6202 H   0  0  0  0  0  0  0  0  0  0  0  0
    0.1462    3.5548   -3.7530 H   0  0  0  0  0  0  0  0  0  0  0  0
    1.3406    5.2456   -5.0446 H   0  0  0  0  0  0  0  0  0  0  0  0
    3.3330    4.6353   -6.3475 H   0  0  0  0  0  0  0  0  0  0  0  0
    4.7327    3.0805   -6.9292 H   0  0  0  0  0  0  0  0  0  0  0  0
    4.0138   -4.1969   -2.6555 H   0  0  0  0  0  0  0  0  0  0  0  0
  1  2  1  0  0  0  0
  1 31  1  0  0  0  0
  1 32  1  0  0  0  0
  2  3  2  0  0  0  0
  2  4  1  0  0  0  0
  4  5  2  0  0  0  0
  4 10  1  0  0  0  0
  5  6  1  0  0  0  0
  5  7  1  0  0  0  0
  6 33  1  0  0  0  0
  7  8  1  0  0  0  0
  7 28  1  0  0  0  0
  7 30  1  0  0  0  0
  8  9  1  0  0  0  0
  8 13  1  0  0  0  0
  8 34  1  0  0  0  0
  9 10  1  0  0  0  0
  9 12  1  0  0  0  0
  9 35  1  0  0  0  0
 10 11  2  0  0  0  0
 12 36  1  0  0  0  0
 13 14  1  0  0  0  0
 13 37  1  0  0  0  0
 13 38  1  0  0  0  0
 14 15  1  0  0  0  0
 14 20  1  0  0  0  0
 14 39  1  0  0  0  0
 15 16  2  0  0  0  0
 15 28  1  0  0  0  0
 16 17  1  0  0  0  0
 16 18  1  0  0  0  0
 17 40  1  0  0  0  0
 18 19  1  0  0  0  0
 18 26  2  0  0  0  0
 19 20  1  0  0  0  0
 19 23  2  0  0  0  0
 20 21  1  0  0  0  0
 20 22  1  0  0  0  0
 21 41  1  0  0  0  0
 21 42  1  0  0  0  0
 21 43  1  0  0  0  0
 22 44  1  0  0  0  0
 23 24  1  0  0  0  0
 23 45  1  0  0  0  0
 24 25  2  0  0  0  0
 24 46  1  0  0  0  0
 25 26  1  0  0  0  0
 25 47  1  0  0  0  0
 26 27  1  0  0  0  0
 27 48  1  0  0  0  0
 28 29  2  0  0  0  0
 30 49  1  0  0  0  0
M  END
$$$$
Target_lig_1167
 OpenBabel05122505473D

 51 54  0  0  1  0  0  0  0  0999 V2000
    1.1382    0.5526   -0.5562 N   0  0  0  0  0  0  0  0  0  0  0  0
    2.2372   -0.0603    0.1024 N   0  0  0  0  0  0  0  0  0  0  0  0
    2.9724    0.7681    0.9688 C   0  0  0  0  0  0  0  0  0  0  0  0
    2.9040    0.6923    2.3173 C   0  0  0  0  0  0  0  0  0  0  0  0
    2.0247   -0.3146    3.0900 C   0  0  0  0  0  0  0  0  0  0  0  0
    1.0876   -0.8940    2.5458 O   0  0  0  0  0  0  0  0  0  0  0  0
    2.5157   -0.6055    4.5682 C   0  0  3  0  0  0  0  0  0  0  0  0
    3.8628   -1.1017    4.3605 O   0  0  0  0  0  0  0  0  0  0  0  0
    2.5369    0.7547    5.3065 C   0  0  3  0  0  0  0  0  0  0  0  0
    2.9578    1.9465    4.4504 C   0  0  0  0  0  0  0  0  0  0  0  0
    3.7770    1.5164    3.2323 C   0  0  3  0  0  0  0  0  0  0  0  0
    4.5540    2.7066    2.6320 C   0  0  3  0  0  0  0  0  0  0  0  0
    4.7359    2.6121    1.1338 C   0  0  0  0  0  0  0  0  0  0  0  0
    4.0081    1.6893    0.3441 C   0  0  0  0  0  0  0  0  0  0  0  0
    4.3379    1.6640   -1.0326 C   0  0  0  0  0  0  0  0  0  0  0  0
    3.7476    0.8031   -1.9267 O   0  0  0  0  0  0  0  0  0  0  0  0
    5.3075    2.5043   -1.5973 C   0  0  0  0  0  0  0  0  0  0  0  0
    5.9633    3.4432   -0.8151 C   0  0  0  0  0  0  0  0  0  0  0  0
    5.6613    3.5035    0.5347 C   0  0  0  0  0  0  0  0  0  0  0  0
    5.9142    2.7311    3.3783 C   0  0  0  0  0  0  0  0  0  0  0  0
    3.8890    3.9418    2.9201 O   0  0  0  0  0  0  0  0  0  0  0  0
    3.4483    0.6473    6.5217 C   0  0  0  0  0  0  0  0  0  0  0  0
    2.8545   -0.3578    7.4562 C   0  0  0  0  0  0  0  0  0  0  0  0
    2.9363   -0.1916    8.6746 O   0  0  0  0  0  0  0  0  0  0  0  0
    2.1882   -1.5667    6.8731 C   0  0  0  0  0  0  0  0  0  0  0  0
    1.9510   -1.6403    5.5347 C   0  0  0  0  0  0  0  0  0  0  0  0
    1.3472   -2.7352    4.9317 O   0  0  0  0  0  0  0  0  0  0  0  0
    1.8889   -2.7316    7.7693 C   0  0  0  0  0  0  0  0  0  0  0  0
    1.2089   -3.6747    7.3740 O   0  0  0  0  0  0  0  0  0  0  0  0
    2.4589   -2.7259    9.0010 N   0  0  0  0  0  0  0  0  0  0  0  0
    0.7392   -0.0625   -1.2642 H   0  0  0  0  0  0  0  0  0  0  0  0
    1.3801    1.4284   -1.0222 H   0  0  0  0  0  0  0  0  0  0  0  0
    1.8787   -0.8638    0.6537 H   0  0  0  0  0  0  0  0  0  0  0  0
    3.7795   -1.8459    3.7303 H   0  0  0  0  0  0  0  0  0  0  0  0
    1.5166    0.9786    5.6575 H   0  0  0  0  0  0  0  0  0  0  0  0
    3.5052    2.6697    5.0659 H   0  0  0  0  0  0  0  0  0  0  0  0
    2.0513    2.4721    4.1156 H   0  0  0  0  0  0  0  0  0  0  0  0
    4.5570    0.8197    3.5556 H   0  0  0  0  0  0  0  0  0  0  0  0
    3.0915    0.2909   -1.4003 H   0  0  0  0  0  0  0  0  0  0  0  0
    5.5469    2.4269   -2.6551 H   0  0  0  0  0  0  0  0  0  0  0  0
    6.7074    4.1041   -1.2414 H   0  0  0  0  0  0  0  0  0  0  0  0
    6.1691    4.2572    1.1356 H   0  0  0  0  0  0  0  0  0  0  0  0
    6.5153    1.8470    3.1277 H   0  0  0  0  0  0  0  0  0  0  0  0
    5.7667    2.7371    4.4651 H   0  0  0  0  0  0  0  0  0  0  0  0
    6.5085    3.6214    3.1595 H   0  0  0  0  0  0  0  0  0  0  0  0
    3.3452    4.1799    2.1487 H   0  0  0  0  0  0  0  0  0  0  0  0
    3.5106    1.6059    7.0466 H   0  0  0  0  0  0  0  0  0  0  0  0
    4.4686    0.3362    6.2694 H   0  0  0  0  0  0  0  0  0  0  0  0
    1.0098   -3.3436    5.6321 H   0  0  0  0  0  0  0  0  0  0  0  0
    2.9125   -1.8916    9.3686 H   0  0  0  0  0  0  0  0  0  0  0  0
    2.2982   -3.4938    9.6328 H   0  0  0  0  0  0  0  0  0  0  0  0
  1  2  1  0  0  0  0
  1 31  1  0  0  0  0
  1 32  1  0  0  0  0
  2  3  1  0  0  0  0
  2 33  1  0  0  0  0
  3  4  2  0  0  0  0
  3 14  1  0  0  0  0
  4  5  1  0  0  0  0
  4 11  1  0  0  0  0
  5  6  2  0  0  0  0
  5  7  1  0  0  0  0
  7  8  1  0  0  0  0
  7  9  1  0  0  0  0
  7 26  1  0  0  0  0
  8 34  1  0  0  0  0
  9 10  1  0  0  0  0
  9 22  1  0  0  0  0
  9 35  1  0  0  0  0
 10 11  1  0  0  0  0
 10 36  1  0  0  0  0
 10 37  1  0  0  0  0
 11 12  1  0  0  0  0
 11 38  1  0  0  0  0
 12 13  1  0  0  0  0
 12 20  1  0  0  0  0
 12 21  1  0  0  0  0
 13 14  1  0  0  0  0
 13 19  2  0  0  0  0
 14 15  2  0  0  0  0
 15 16  1  0  0  0  0
 15 17  1  0  0  0  0
 16 39  1  0  0  0  0
 17 18  2  0  0  0  0
 17 40  1  0  0  0  0
 18 19  1  0  0  0  0
 18 41  1  0  0  0  0
 19 42  1  0  0  0  0
 20 43  1  0  0  0  0
 20 44  1  0  0  0  0
 20 45  1  0  0  0  0
 21 46  1  0  0  0  0
 22 23  1  0  0  0  0
 22 47  1  0  0  0  0
 22 48  1  0  0  0  0
 23 24  2  0  0  0  0
 23 25  1  0  0  0  0
 25 26  2  0  0  0  0
 25 28  1  0  0  0  0
 26 27  1  0  0  0  0
 27 49  1  0  0  0  0
 28 29  2  0  0  0  0
 28 30  1  0  0  0  0
 30 50  1  0  0  0  0
 30 51  1  0  0  0  0
M  END
$$$$
Target_lig_1168
 OpenBabel05122505473D

 53 56  0  0  1  0  0  0  0  0999 V2000
    1.0995   -0.0039   -0.0090 N   0  0  0  0  0  0  0  0  0  0  0  0
    2.3605   -0.0039   -0.0090 C   0  0  0  0  0  0  0  0  0  0  0  0
    3.8805   -0.0039   -0.0090 C   0  0  0  0  0  0  0  0  0  0  0  0
    3.3867    0.8122   -1.3735 C   0  0  0  0  0  0  0  0  0  0  0  0
    2.1723    0.4312   -2.0654 O   0  0  0  0  0  0  0  0  0  0  0  0
    3.8089    2.3433   -2.3462 C   0  0  3  0  0  0  0  0  0  0  0  0
    5.1443    2.1001   -1.8980 C   0  0  3  0  0  0  0  0  0  0  0  0
    4.6240    2.3905   -0.1769 C   0  0  3  0  0  0  0  0  0  0  0  0
    4.8157    1.0337    0.4465 C   0  0  0  0  0  0  0  0  0  0  0  0
    5.7351    0.7483    1.2020 O   0  0  0  0  0  0  0  0  0  0  0  0
    3.2561    3.0280    0.3842 N   0  0  0  0  0  0  0  0  0  0  0  0
    3.1090    3.1638    1.8286 C   0  0  0  0  0  0  0  0  0  0  0  0
    1.8566    3.0758   -0.1509 C   0  0  0  0  0  0  0  0  0  0  0  0
    5.2184    0.7035   -3.0627 C   0  0  0  0  0  0  0  0  0  0  0  0
    3.8838    0.4819   -4.2153 C   0  0  3  0  0  0  0  0  0  0  0  0
    3.5393    1.7240   -4.9308 C   0  0  0  0  0  0  0  0  0  0  0  0
    2.7165    1.8473   -5.9975 C   0  0  0  0  0  0  0  0  0  0  0  0
    2.3058    3.0702   -6.4741 O   0  0  0  0  0  0  0  0  0  0  0  0
    2.0502    0.6440   -6.5911 C   0  0  0  0  0  0  0  0  0  0  0  0
    2.3509   -0.6373   -6.0528 C   0  0  0  0  0  0  0  0  0  0  0  0
    3.3397   -0.8494   -4.8556 C   0  0  3  0  0  0  0  0  0  0  0  0
    2.5151   -1.6488   -3.7919 C   0  0  0  0  0  0  0  0  0  0  0  0
    4.4566   -1.6336   -5.2520 O   0  0  0  0  0  0  0  0  0  0  0  0
    1.6385   -1.7687   -6.5340 C   0  0  0  0  0  0  0  0  0  0  0  0
    0.6030   -1.6702   -7.4612 C   0  0  0  0  0  0  0  0  0  0  0  0
    0.2915   -0.4304   -7.9884 C   0  0  0  0  0  0  0  0  0  0  0  0
    1.0035    0.7033   -7.5848 C   0  0  0  0  0  0  0  0  0  0  0  0
    0.6191    1.8932   -8.1546 O   0  0  0  0  0  0  0  0  0  0  0  0
    3.8510    2.7963   -3.9422 C   0  0  0  0  0  0  0  0  0  0  0  0
    4.1154    3.9165   -4.3665 O   0  0  0  0  0  0  0  0  0  0  0  0
    3.3543    3.6410   -1.9778 O   0  0  0  0  0  0  0  0  0  0  0  0
    1.5446    1.1852   -2.0760 H   0  0  0  0  0  0  0  0  0  0  0  0
    5.8523    2.8806   -2.1947 H   0  0  0  0  0  0  0  0  0  0  0  0
    5.3951    3.0677    0.2116 H   0  0  0  0  0  0  0  0  0  0  0  0
    3.9709    2.8173    2.3951 H   0  0  0  0  0  0  0  0  0  0  0  0
    2.2321    2.6040    2.1925 H   0  0  0  0  0  0  0  0  0  0  0  0
    2.9153    4.2167    2.0615 H   0  0  0  0  0  0  0  0  0  0  0  0
    1.1990    2.3207    0.2834 H   0  0  0  0  0  0  0  0  0  0  0  0
    1.6327    3.0105   -1.2206 H   0  0  0  0  0  0  0  0  0  0  0  0
    1.3928    4.0324    0.1316 H   0  0  0  0  0  0  0  0  0  0  0  0
    5.4144   -0.2266   -2.5287 H   0  0  0  0  0  0  0  0  0  0  0  0
    6.0849    0.9312   -3.6987 H   0  0  0  0  0  0  0  0  0  0  0  0
    3.0228    0.5923   -3.6331 H   0  0  0  0  0  0  0  0  0  0  0  0
    2.7838    3.7798   -6.0205 H   0  0  0  0  0  0  0  0  0  0  0  0
    1.5369   -1.1656   -3.6084 H   0  0  0  0  0  0  0  0  0  0  0  0
    3.0497   -1.7346   -2.8438 H   0  0  0  0  0  0  0  0  0  0  0  0
    2.2830   -2.6724   -4.0889 H   0  0  0  0  0  0  0  0  0  0  0  0
    4.6777   -1.3321   -6.1540 H   0  0  0  0  0  0  0  0  0  0  0  0
    1.8509   -2.7621   -6.1403 H   0  0  0  0  0  0  0  0  0  0  0  0
    0.0351   -2.5525   -7.7494 H   0  0  0  0  0  0  0  0  0  0  0  0
   -0.5318   -0.3624   -8.7073 H   0  0  0  0  0  0  0  0  0  0  0  0
   -0.1158    1.7384   -8.7725 H   0  0  0  0  0  0  0  0  0  0  0  0
    4.0685    4.2954   -2.0894 H   0  0  0  0  0  0  0  0  0  0  0  0
  1  2  3  0  0  0  0
  2  3  1  0  0  0  0
  3  4  2  0  0  0  0
  3  9  1  0  0  0  0
  4  5  1  0  0  0  0
  4  6  1  0  0  0  0
  5 32  1  0  0  0  0
  6  7  1  0  0  0  0
  6 29  1  0  0  0  0
  6 31  1  0  0  0  0
  7  8  1  0  0  0  0
  7 14  1  0  0  0  0
  7 33  1  0  0  0  0
  8  9  1  0  0  0  0
  8 11  1  0  0  0  0
  8 34  1  0  0  0  0
  9 10  2  0  0  0  0
 11 12  1  0  0  0  0
 11 13  1  0  0  0  0
 12 35  1  0  0  0  0
 12 36  1  0  0  0  0
 12 37  1  0  0  0  0
 13 38  1  0  0  0  0
 13 39  1  0  0  0  0
 13 40  1  0  0  0  0
 14 15  1  0  0  0  0
 14 41  1  0  0  0  0
 14 42  1  0  0  0  0
 15 16  1  0  0  0  0
 15 21  1  0  0  0  0
 15 43  1  0  0  0  0
 16 17  2  0  0  0  0
 16 29  1  0  0  0  0
 17 18  1  0  0  0  0
 17 19  1  0  0  0  0
 18 44  1  0  0  0  0
 19 20  1  0  0  0  0
 19 27  2  0  0  0  0
 20 21  1  0  0  0  0
 20 24  2  0  0  0  0
 21 22  1  0  0  0  0
 21 23  1  0  0  0  0
 22 45  1  0  0  0  0
 22 46  1  0  0  0  0
 22 47  1  0  0  0  0
 23 48  1  0  0  0  0
 24 25  1  0  0  0  0
 24 49  1  0  0  0  0
 25 26  2  0  0  0  0
 25 50  1  0  0  0  0
 26 27  1  0  0  0  0
 26 51  1  0  0  0  0
 27 28  1  0  0  0  0
 28 52  1  0  0  0  0
 29 30  2  0  0  0  0
 31 53  1  0  0  0  0
M  END
$$$$
Target_lig_1169
 OpenBabel05122505473D

 57 60  0  0  1  0  0  0  0  0999 V2000
    0.5809   -8.2875   -1.9992 C   0  0  0  0  0  0  0  0  0  0  0  0
    0.1711   -6.9061   -1.7723 N   0  0  0  0  0  0  0  0  0  0  0  0
    1.0428   -5.8131   -2.3173 C   0  0  3  0  0  0  0  0  0  0  0  0
    2.5408   -5.9497   -1.8744 C   0  0  0  0  0  0  0  0  0  0  0  0
    3.0546   -6.9859   -1.4510 O   0  0  0  0  0  0  0  0  0  0  0  0
    3.4230   -4.7551   -1.8571 C   0  0  0  0  0  0  0  0  0  0  0  0
    2.8900   -3.5216   -1.8498 C   0  0  0  0  0  0  0  0  0  0  0  0
    1.4886   -3.2718   -2.3489 C   0  0  3  0  0  0  0  0  0  0  0  0
    0.5356   -4.3819   -1.8866 C   0  0  3  0  0  0  0  0  0  0  0  0
    0.2039   -4.2625   -0.3732 C   0  0  3  0  0  0  0  0  0  0  0  0
    0.7265   -5.3935    0.3209 O   0  0  0  0  0  0  0  0  0  0  0  0
    0.6797   -3.0189    0.4063 C   0  0  3  0  0  0  0  0  0  0  0  0
    0.7591   -1.7395   -0.3615 C   0  0  0  0  0  0  0  0  0  0  0  0
    0.8745   -0.5606    0.2780 C   0  0  0  0  0  0  0  0  0  0  0  0
    1.0486    0.6431   -0.3644 O   0  0  0  0  0  0  0  0  0  0  0  0
    0.8296   -0.5054    1.7744 C   0  0  0  0  0  0  0  0  0  0  0  0
    0.2600   -1.6018    2.4877 C   0  0  0  0  0  0  0  0  0  0  0  0
   -0.0546   -2.9123    1.7902 C   0  0  3  0  0  0  0  0  0  0  0  0
    0.4250   -4.1033    2.6643 C   0  0  0  0  0  0  0  0  0  0  0  0
   -1.4704   -3.0129    1.6157 O   0  0  0  0  0  0  0  0  0  0  0  0
    0.0534   -1.5096    3.8796 C   0  0  0  0  0  0  0  0  0  0  0  0
    0.5903   -0.4639    4.6173 C   0  0  0  0  0  0  0  0  0  0  0  0
    1.2670    0.5398    3.9638 C   0  0  0  0  0  0  0  0  0  0  0  0
    1.3474    0.5356    2.5536 C   0  0  0  0  0  0  0  0  0  0  0  0
    2.0316    1.5697    1.9724 O   0  0  0  0  0  0  0  0  0  0  0  0
    0.9366   -1.8870   -1.8501 C   0  0  0  0  0  0  0  0  0  0  0  0
    0.6852   -0.9430   -2.5996 O   0  0  0  0  0  0  0  0  0  0  0  0
    1.6374   -3.3575   -3.7717 O   0  0  0  0  0  0  0  0  0  0  0  0
    3.5841   -2.4148   -1.3777 O   0  0  0  0  0  0  0  0  0  0  0  0
    4.8812   -4.8674   -1.6548 C   0  0  0  0  0  0  0  0  0  0  0  0
    5.4439   -4.2544   -0.7538 O   0  0  0  0  0  0  0  0  0  0  0  0
    5.5777   -5.5417   -2.6141 N   0  0  0  0  0  0  0  0  0  0  0  0
   -1.2600   -6.7784   -2.0372 C   0  0  0  0  0  0  0  0  0  0  0  0
    1.5862   -8.5237   -1.6559 H   0  0  0  0  0  0  0  0  0  0  0  0
    0.4915   -8.5765   -3.0488 H   0  0  0  0  0  0  0  0  0  0  0  0
   -0.0507   -8.9578   -1.4003 H   0  0  0  0  0  0  0  0  0  0  0  0
    1.0420   -5.8942   -3.4119 H   0  0  0  0  0  0  0  0  0  0  0  0
   -0.4033   -4.2008   -2.4358 H   0  0  0  0  0  0  0  0  0  0  0  0
   -0.8874   -4.3290   -0.3001 H   0  0  0  0  0  0  0  0  0  0  0  0
    1.6851   -5.3257    0.4554 H   0  0  0  0  0  0  0  0  0  0  0  0
    1.7369   -3.1951    0.6560 H   0  0  0  0  0  0  0  0  0  0  0  0
    1.1528    0.4698   -1.3320 H   0  0  0  0  0  0  0  0  0  0  0  0
    1.5155   -4.2138    2.5971 H   0  0  0  0  0  0  0  0  0  0  0  0
   -0.0602   -5.0387    2.3759 H   0  0  0  0  0  0  0  0  0  0  0  0
    0.1961   -4.0220    3.7268 H   0  0  0  0  0  0  0  0  0  0  0  0
   -1.8729   -2.1424    1.7817 H   0  0  0  0  0  0  0  0  0  0  0  0
   -0.4954   -2.2835    4.4168 H   0  0  0  0  0  0  0  0  0  0  0  0
    0.5046   -0.4798    5.7033 H   0  0  0  0  0  0  0  0  0  0  0  0
    1.7244    1.3312    4.5545 H   0  0  0  0  0  0  0  0  0  0  0  0
    2.3764    2.1624    2.6571 H   0  0  0  0  0  0  0  0  0  0  0  0
    0.7791   -3.5351   -4.1897 H   0  0  0  0  0  0  0  0  0  0  0  0
    4.3581   -2.7208   -0.8462 H   0  0  0  0  0  0  0  0  0  0  0  0
    5.1603   -5.9756   -3.4268 H   0  0  0  0  0  0  0  0  0  0  0  0
    6.5881   -5.5529   -2.5448 H   0  0  0  0  0  0  0  0  0  0  0  0
   -1.8180   -7.5610   -1.5063 H   0  0  0  0  0  0  0  0  0  0  0  0
   -1.4864   -6.8573   -3.1038 H   0  0  0  0  0  0  0  0  0  0  0  0
   -1.6809   -5.8438   -1.6605 H   0  0  0  0  0  0  0  0  0  0  0  0
  1  2  1  0  0  0  0
  1 34  1  0  0  0  0
  1 35  1  0  0  0  0
  1 36  1  0  0  0  0
  2  3  1  0  0  0  0
  2 33  1  0  0  0  0
  3  4  1  0  0  0  0
  3  9  1  0  0  0  0
  3 37  1  0  0  0  0
  4  5  2  0  0  0  0
  4  6  1  0  0  0  0
  6  7  2  0  0  0  0
  6 30  1  0  0  0  0
  7  8  1  0  0  0  0
  7 29  1  0  0  0  0
  8  9  1  0  0  0  0
  8 26  1  0  0  0  0
  8 28  1  0  0  0  0
  9 10  1  0  0  0  0
  9 38  1  0  0  0  0
 10 11  1  0  0  0  0
 10 12  1  0  0  0  0
 10 39  1  0  0  0  0
 11 40  1  0  0  0  0
 12 13  1  0  0  0  0
 12 18  1  0  0  0  0
 12 41  1  0  0  0  0
 13 14  2  0  0  0  0
 13 26  1  0  0  0  0
 14 15  1  0  0  0  0
 14 16  1  0  0  0  0
 15 42  1  0  0  0  0
 16 17  1  0  0  0  0
 16 24  2  0  0  0  0
 17 18  1  0  0  0  0
 17 21  2  0  0  0  0
 18 19  1  0  0  0  0
 18 20  1  0  0  0  0
 19 43  1  0  0  0  0
 19 44  1  0  0  0  0
 19 45  1  0  0  0  0
 20 46  1  0  0  0  0
 21 22  1  0  0  0  0
 21 47  1  0  0  0  0
 22 23  2  0  0  0  0
 22 48  1  0  0  0  0
 23 24  1  0  0  0  0
 23 49  1  0  0  0  0
 24 25  1  0  0  0  0
 25 50  1  0  0  0  0
 26 27  2  0  0  0  0
 28 51  1  0  0  0  0
 29 52  1  0  0  0  0
 30 31  2  0  0  0  0
 30 32  1  0  0  0  0
 32 53  1  0  0  0  0
 32 54  1  0  0  0  0
 33 55  1  0  0  0  0
 33 56  1  0  0  0  0
 33 57  1  0  0  0  0
M  END
$$$$
Target_lig_496
 OpenBabel05122505473D

 68 72  0  0  1  0  0  0  0  0999 V2000
    5.2599   -8.8301   -4.0190 C   0  0  0  0  0  0  0  0  0  0  0  0
    5.4878   -7.3225   -4.0488 C   0  0  1  0  0  0  0  0  0  0  0  0
    6.1052   -6.8534   -5.3842 C   0  0  2  0  0  0  0  0  0  0  0  0
    6.1612   -5.3116   -5.3992 C   0  0  2  0  0  0  0  0  0  0  0  0
    4.7620   -4.7477   -5.1551 C   0  0  0  0  0  0  0  0  0  0  0  0
    4.2678   -5.2684   -3.8086 C   0  0  1  0  0  0  0  0  0  0  0  0
    4.2116   -6.7003   -3.8374 O   0  0  0  0  0  0  0  0  0  0  0  0
    5.0643   -4.8170   -2.7048 O   0  0  0  0  0  0  0  0  0  0  0  0
    5.1575   -3.3935   -2.5406 C   0  0  1  0  0  0  0  0  0  0  0  0
    3.7874   -2.7846   -2.2534 C   0  0  0  0  0  0  0  0  0  0  0  0
    3.2969   -3.2296   -0.8736 C   0  0  1  0  0  0  0  0  0  0  0  0
    4.1971   -2.5666    0.1744 C   0  0  0  0  0  0  0  0  0  0  0  0
    5.6803   -2.7339   -0.1299 C   0  0  0  0  0  0  0  0  0  0  0  0
    6.1391   -3.1273   -1.4062 C   0  0  0  0  0  0  0  0  0  0  0  0
    7.5292   -3.3047   -1.6013 C   0  0  0  0  0  0  0  0  0  0  0  0
    8.4715   -3.0577   -0.5824 C   0  0  0  0  0  0  0  0  0  0  0  0
    8.0042   -2.6266    0.6541 C   0  0  0  0  0  0  0  0  0  0  0  0
    6.6275   -2.4681    0.8769 C   0  0  0  0  0  0  0  0  0  0  0  0
    6.1261   -2.0382    2.0838 O   0  0  0  0  0  0  0  0  0  0  0  0
    8.9628   -2.3409    1.7383 C   0  0  0  0  0  0  0  0  0  0  0  0
    8.5509   -1.9604    2.8258 O   0  0  0  0  0  0  0  0  0  0  0  0
   10.4138   -2.5255    1.5231 C   0  0  0  0  0  0  0  0  0  0  0  0
   10.9040   -2.9483    0.2870 C   0  0  0  0  0  0  0  0  0  0  0  0
    9.9380   -3.1985   -0.8214 C   0  0  0  0  0  0  0  0  0  0  0  0
   10.3457   -3.4789   -1.9420 O   0  0  0  0  0  0  0  0  0  0  0  0
   12.3010   -3.1066    0.1144 C   0  0  0  0  0  0  0  0  0  0  0  0
   13.1624   -2.8237    1.1858 C   0  0  0  0  0  0  0  0  0  0  0  0
   12.6556   -2.3968    2.4133 C   0  0  0  0  0  0  0  0  0  0  0  0
   11.2837   -2.2497    2.5835 C   0  0  0  0  0  0  0  0  0  0  0  0
   12.7497   -3.5377   -1.1018 O   0  0  0  0  0  0  0  0  0  0  0  0
   14.1411   -3.6821   -1.3240 C   0  0  0  0  0  0  0  0  0  0  0  0
    7.9551   -3.7984   -2.8045 O   0  0  0  0  0  0  0  0  0  0  0  0
    1.8295   -2.8085   -0.7049 C   0  0  0  0  0  0  0  0  0  0  0  0
    1.3567   -1.8227   -1.2818 O   0  0  0  0  0  0  0  0  0  0  0  0
    0.9693   -3.6317    0.2526 C   0  0  0  0  0  0  0  0  0  0  0  0
   -0.3843   -3.1945    0.2667 O   0  0  0  0  0  0  0  0  0  0  0  0
    3.3286   -4.6514   -0.7116 O   0  0  0  0  0  0  0  0  0  0  0  0
    6.6943   -4.7525   -6.6491 N   0  0  0  0  0  0  0  0  0  0  0  0
    5.3226   -7.2978   -6.5049 O   0  0  0  0  0  0  0  0  0  0  0  0
    6.2011   -9.3737   -4.1427 H   0  0  0  0  0  0  0  0  0  0  0  0
    4.5632   -9.1480   -4.8022 H   0  0  0  0  0  0  0  0  0  0  0  0
    4.8069   -9.1277   -3.0668 H   0  0  0  0  0  0  0  0  0  0  0  0
    6.1487   -7.0575   -3.2146 H   0  0  0  0  0  0  0  0  0  0  0  0
    7.1088   -7.2738   -5.5035 H   0  0  0  0  0  0  0  0  0  0  0  0
    6.8284   -4.9937   -4.5975 H   0  0  0  0  0  0  0  0  0  0  0  0
    4.0718   -5.0699   -5.9445 H   0  0  0  0  0  0  0  0  0  0  0  0
    4.7720   -3.6539   -5.1869 H   0  0  0  0  0  0  0  0  0  0  0  0
    3.2307   -4.9628   -3.6521 H   0  0  0  0  0  0  0  0  0  0  0  0
    5.5620   -2.9238   -3.4419 H   0  0  0  0  0  0  0  0  0  0  0  0
    3.0637   -3.0555   -3.0272 H   0  0  0  0  0  0  0  0  0  0  0  0
    3.8601   -1.6884   -2.2929 H   0  0  0  0  0  0  0  0  0  0  0  0
    3.9775   -2.9997    1.1569 H   0  0  0  0  0  0  0  0  0  0  0  0
    3.9858   -1.4896    0.2217 H   0  0  0  0  0  0  0  0  0  0  0  0
    6.8764   -1.8900    2.7024 H   0  0  0  0  0  0  0  0  0  0  0  0
   14.2380   -2.9299    1.0964 H   0  0  0  0  0  0  0  0  0  0  0  0
   13.3346   -2.1810    3.2383 H   0  0  0  0  0  0  0  0  0  0  0  0
   10.9007   -1.9134    3.5480 H   0  0  0  0  0  0  0  0  0  0  0  0
   14.2802   -4.0153   -2.3581 H   0  0  0  0  0  0  0  0  0  0  0  0
   14.5699   -4.4464   -0.6666 H   0  0  0  0  0  0  0  0  0  0  0  0
   14.6640   -2.7244   -1.2101 H   0  0  0  0  0  0  0  0  0  0  0  0
    7.6452   -3.2337   -3.5307 H   0  0  0  0  0  0  0  0  0  0  0  0
    1.3736   -3.5318    1.2643 H   0  0  0  0  0  0  0  0  0  0  0  0
    0.9698   -4.6809   -0.0480 H   0  0  0  0  0  0  0  0  0  0  0  0
   -0.3754   -2.2611   -0.0215 H   0  0  0  0  0  0  0  0  0  0  0  0
    4.1742   -5.0032   -1.0594 H   0  0  0  0  0  0  0  0  0  0  0  0
    6.1814   -5.1782   -7.4235 H   0  0  0  0  0  0  0  0  0  0  0  0
    7.6517   -5.0894   -6.7690 H   0  0  0  0  0  0  0  0  0  0  0  0
    4.3851   -7.2263   -6.2436 H   0  0  0  0  0  0  0  0  0  0  0  0
  1 40  1  0  0  0  0
  1 41  1  0  0  0  0
  1 42  1  0  0  0  0
  2  3  1  0  0  0  0
  2  7  1  0  0  0  0
  2  1  1  0  0  0  0
  2 43  1  1  0  0  0
  3  4  1  0  0  0  0
  3 39  1  0  0  0  0
  3 44  1  6  0  0  0
  4  5  1  0  0  0  0
  4 38  1  0  0  0  0
  4 45  1  1  0  0  0
  5  6  1  0  0  0  0
  5 46  1  0  0  0  0
  5 47  1  0  0  0  0
  6  7  1  0  0  0  0
  6  8  1  0  0  0  0
  6 48  1  1  0  0  0
  9 10  1  0  0  0  0
  9 14  1  0  0  0  0
  9  8  1  0  0  0  0
  9 49  1  6  0  0  0
 10 11  1  0  0  0  0
 10 50  1  0  0  0  0
 10 51  1  0  0  0  0
 11 12  1  0  0  0  0
 11 33  1  1  0  0  0
 11 37  1  0  0  0  0
 12 13  1  0  0  0  0
 12 52  1  0  0  0  0
 12 53  1  0  0  0  0
 13 14  2  0  0  0  0
 13 18  1  0  0  0  0
 14 15  1  0  0  0  0
 15 16  2  0  0  0  0
 15 32  1  0  0  0  0
 16 17  1  0  0  0  0
 16 24  1  0  0  0  0
 17 18  2  0  0  0  0
 17 20  1  0  0  0  0
 18 19  1  0  0  0  0
 19 54  1  0  0  0  0
 20 21  2  0  0  0  0
 20 22  1  0  0  0  0
 22 23  2  0  0  0  0
 22 29  1  0  0  0  0
 23 24  1  0  0  0  0
 23 26  1  0  0  0  0
 24 25  2  0  0  0  0
 26 27  2  0  0  0  0
 26 30  1  0  0  0  0
 27 28  1  0  0  0  0
 27 55  1  0  0  0  0
 28 29  2  0  0  0  0
 28 56  1  0  0  0  0
 29 57  1  0  0  0  0
 30 31  1  0  0  0  0
 31 58  1  0  0  0  0
 31 59  1  0  0  0  0
 31 60  1  0  0  0  0
 32 61  1  0  0  0  0
 33 34  2  0  0  0  0
 33 35  1  0  0  0  0
 35 36  1  0  0  0  0
 35 62  1  0  0  0  0
 35 63  1  0  0  0  0
 36 64  1  0  0  0  0
 37 65  1  0  0  0  0
 38 66  1  0  0  0  0
 38 67  1  0  0  0  0
 39 68  1  0  0  0  0
M  END
$$$$
Target_lig_1171
 OpenBabel05122505473D

 48 51  0  0  1  0  0  0  0  0999 V2000
    1.8886    1.1107   -0.6949 N   0  0  0  0  0  0  0  0  0  0  0  0
    3.2077    1.3398   -1.0390 C   0  0  0  0  0  0  0  0  0  0  0  0
    3.7777    2.3737   -0.7628 O   0  0  0  0  0  0  0  0  0  0  0  0
    3.8701    0.2216   -1.7904 C   0  0  0  0  0  0  0  0  0  0  0  0
    5.2398    0.1424   -1.7721 C   0  0  0  0  0  0  0  0  0  0  0  0
    5.8396   -0.4229   -2.9020 O   0  0  0  0  0  0  0  0  0  0  0  0
    5.9526   -0.3324   -0.4557 C   0  0  3  0  0  0  0  0  0  0  0  0
    4.9542   -1.2695    0.2454 C   0  0  3  0  0  0  0  0  0  0  0  0
    4.1775   -2.0974   -0.8131 C   0  0  0  0  0  0  0  0  0  0  0  0
    3.2717   -1.1299   -1.5052 C   0  0  0  0  0  0  0  0  0  0  0  0
    2.0872   -1.3739   -1.7160 O   0  0  0  0  0  0  0  0  0  0  0  0
    5.5886   -2.1699    1.2795 C   0  0  3  0  0  0  0  0  0  0  0  0
    4.5021   -2.8580    1.9072 O   0  0  0  0  0  0  0  0  0  0  0  0
    6.6000   -3.0951    0.5944 C   0  0  3  0  0  0  0  0  0  0  0  0
    7.7656   -2.2891    0.0875 C   0  0  0  0  0  0  0  0  0  0  0  0
    9.0240   -2.7899    0.1248 C   0  0  0  0  0  0  0  0  0  0  0  0
   10.1298   -2.0609   -0.2608 O   0  0  0  0  0  0  0  0  0  0  0  0
    9.2716   -4.2257    0.4947 C   0  0  0  0  0  0  0  0  0  0  0  0
    8.2061   -4.9937    1.0180 C   0  0  0  0  0  0  0  0  0  0  0  0
    6.8967   -4.3633    1.4205 C   0  0  3  0  0  0  0  0  0  0  0  0
    6.8486   -4.2586    2.9516 C   0  0  0  0  0  0  0  0  0  0  0  0
    8.3300   -6.3783    1.2514 C   0  0  0  0  0  0  0  0  0  0  0  0
    9.5268   -7.0298    1.0170 C   0  0  0  0  0  0  0  0  0  0  0  0
   10.6093   -6.2977    0.5529 C   0  0  0  0  0  0  0  0  0  0  0  0
   10.4854   -4.9197    0.2902 C   0  0  0  0  0  0  0  0  0  0  0  0
   11.5950   -4.2808   -0.1954 O   0  0  0  0  0  0  0  0  0  0  0  0
    7.4375   -0.9239   -0.5545 C   0  0  0  0  0  0  0  0  0  0  0  0
    8.3578   -0.2588   -1.0427 O   0  0  0  0  0  0  0  0  0  0  0  0
    6.1352    0.8346    0.3566 O   0  0  0  0  0  0  0  0  0  0  0  0
    1.4105    0.3458   -1.1698 H   0  0  0  0  0  0  0  0  0  0  0  0
    1.7690    0.9951    0.3079 H   0  0  0  0  0  0  0  0  0  0  0  0
    5.3755   -0.0945   -3.6994 H   0  0  0  0  0  0  0  0  0  0  0  0
    4.2268   -0.6514    0.7993 H   0  0  0  0  0  0  0  0  0  0  0  0
    3.5727   -2.8900   -0.3651 H   0  0  0  0  0  0  0  0  0  0  0  0
    4.8214   -2.5522   -1.5742 H   0  0  0  0  0  0  0  0  0  0  0  0
    6.0775   -1.5692    2.0526 H   0  0  0  0  0  0  0  0  0  0  0  0
    4.3230   -3.6937    1.4487 H   0  0  0  0  0  0  0  0  0  0  0  0
    6.1575   -3.5078   -0.3235 H   0  0  0  0  0  0  0  0  0  0  0  0
    9.8415   -1.1772   -0.5655 H   0  0  0  0  0  0  0  0  0  0  0  0
    6.1011   -5.0691    1.1362 H   0  0  0  0  0  0  0  0  0  0  0  0
    7.6555   -3.6394    3.3513 H   0  0  0  0  0  0  0  0  0  0  0  0
    6.9354   -5.2570    3.3981 H   0  0  0  0  0  0  0  0  0  0  0  0
    5.9025   -3.8714    3.3329 H   0  0  0  0  0  0  0  0  0  0  0  0
    7.4860   -6.9457    1.6407 H   0  0  0  0  0  0  0  0  0  0  0  0
    9.6114   -8.0949    1.2075 H   0  0  0  0  0  0  0  0  0  0  0  0
   11.5474   -6.8190    0.3864 H   0  0  0  0  0  0  0  0  0  0  0  0
   12.3544   -4.8839   -0.1730 H   0  0  0  0  0  0  0  0  0  0  0  0
    6.6319    1.4833   -0.1848 H   0  0  0  0  0  0  0  0  0  0  0  0
  1  2  1  0  0  0  0
  1 30  1  0  0  0  0
  1 31  1  0  0  0  0
  2  3  2  0  0  0  0
  2  4  1  0  0  0  0
  4  5  2  3  0  0  0
  4 10  1  0  0  0  0
  5  6  1  0  0  0  0
  5  7  1  0  0  0  0
  6 32  1  0  0  0  0
  7  8  1  0  0  0  0
  7 27  1  0  0  0  0
  7 29  1  0  0  0  0
  8  9  1  0  0  0  0
  8 12  1  0  0  0  0
  8 33  1  0  0  0  0
  9 10  1  0  0  0  0
  9 34  1  0  0  0  0
  9 35  1  0  0  0  0
 10 11  2  0  0  0  0
 12 13  1  0  0  0  0
 12 14  1  0  0  0  0
 12 36  1  0  0  0  0
 13 37  1  0  0  0  0
 14 15  1  0  0  0  0
 14 20  1  0  0  0  0
 14 38  1  0  0  0  0
 15 16  2  0  0  0  0
 15 27  1  0  0  0  0
 16 17  1  0  0  0  0
 16 18  1  0  0  0  0
 17 39  1  0  0  0  0
 18 19  1  0  0  0  0
 18 25  2  0  0  0  0
 19 20  1  0  0  0  0
 19 22  2  0  0  0  0
 20 21  1  0  0  0  0
 20 40  1  0  0  0  0
 21 41  1  0  0  0  0
 21 42  1  0  0  0  0
 21 43  1  0  0  0  0
 22 23  1  0  0  0  0
 22 44  1  0  0  0  0
 23 24  2  0  0  0  0
 23 45  1  0  0  0  0
 24 25  1  0  0  0  0
 24 46  1  0  0  0  0
 25 26  1  0  0  0  0
 26 47  1  0  0  0  0
 27 28  2  0  0  0  0
 29 48  1  0  0  0  0
M  END
$$$$
Target_lig_18
 OpenBabel05122505473D

 39 44  0  0  0  0  0  0  0  0999 V2000
    1.4218   -0.5712    0.1078 C   0  0  0  0  0  0  0  0  0  0  0  0
    2.8748   -0.2660    0.1836 N   0  3  0  0  0  0  0  0  0  0  0  0
    3.3260    1.0334    0.2013 C   0  0  0  0  0  0  0  0  0  0  0  0
    4.6364    1.2531   -0.3241 C   0  0  0  0  0  0  0  0  0  0  0  0
    5.5343    0.1734   -0.5279 C   0  0  0  0  0  0  0  0  0  0  0  0
    6.9056    0.3760   -0.8825 C   0  0  0  0  0  0  0  0  0  0  0  0
    7.7867   -0.6720   -1.1298 C   0  0  0  0  0  0  0  0  0  0  0  0
    7.3061   -1.9333   -0.9441 C   0  0  0  0  0  0  0  0  0  0  0  0
    6.0083   -2.1769   -0.5365 C   0  0  0  0  0  0  0  0  0  0  0  0
    5.0762   -1.1367   -0.3423 C   0  0  0  0  0  0  0  0  0  0  0  0
    3.7207   -1.3140   -0.0095 C   0  0  0  0  0  0  0  0  0  0  0  0
    5.8094   -3.5151   -0.3429 O   0  0  0  0  0  0  0  0  0  0  0  0
    7.1703   -4.0172   -0.4823 C   0  0  0  0  0  0  0  0  0  0  0  0
    8.0435   -3.0600   -1.0969 O   0  0  0  0  0  0  0  0  0  0  0  0
    5.0062    2.5609   -0.6540 C   0  0  0  0  0  0  0  0  0  0  0  0
    4.2018    3.6509   -0.3722 C   0  0  0  0  0  0  0  0  0  0  0  0
    3.0258    3.4834    0.3322 C   0  0  0  0  0  0  0  0  0  0  0  0
    2.3615    4.6554    0.7085 C   0  0  0  0  0  0  0  0  0  0  0  0
    1.2521    4.5503    1.4986 C   0  0  0  0  0  0  0  0  0  0  0  0
    0.7974    3.3320    1.9168 C   0  0  0  0  0  0  0  0  0  0  0  0
    1.4156    2.1469    1.5382 C   0  0  0  0  0  0  0  0  0  0  0  0
    2.5613    2.1758    0.6823 C   0  0  0  0  0  0  0  0  0  0  0  0
   -0.2801    3.4493    2.7421 O   0  0  0  0  0  0  0  0  0  0  0  0
   -0.4451    4.8899    2.7809 C   0  0  0  0  0  0  0  0  0  0  0  0
    0.5303    5.5891    1.9842 O   0  0  0  0  0  0  0  0  0  0  0  0
    0.8584    0.3105   -0.2041 H   0  0  0  0  0  0  0  0  0  0  0  0
    1.0902   -0.9484    1.0768 H   0  0  0  0  0  0  0  0  0  0  0  0
    1.2702   -1.3256   -0.6715 H   0  0  0  0  0  0  0  0  0  0  0  0
    7.3358    1.3727   -0.9438 H   0  0  0  0  0  0  0  0  0  0  0  0
    8.8149   -0.4869   -1.4131 H   0  0  0  0  0  0  0  0  0  0  0  0
    3.2893   -2.3152    0.0536 H   0  0  0  0  0  0  0  0  0  0  0  0
    7.1694   -4.9378   -1.0753 H   0  0  0  0  0  0  0  0  0  0  0  0
    7.5722   -4.2407    0.5152 H   0  0  0  0  0  0  0  0  0  0  0  0
    5.9364    2.7884   -1.1743 H   0  0  0  0  0  0  0  0  0  0  0  0
    4.5540    4.6396   -0.6628 H   0  0  0  0  0  0  0  0  0  0  0  0
    2.7229    5.6436    0.4274 H   0  0  0  0  0  0  0  0  0  0  0  0
    1.0321    1.2308    1.9734 H   0  0  0  0  0  0  0  0  0  0  0  0
   -0.3564    5.2322    3.8184 H   0  0  0  0  0  0  0  0  0  0  0  0
   -1.4434    5.1425    2.4059 H   0  0  0  0  0  0  0  0  0  0  0  0
  1  2  1  0  0  0  0
  1 26  1  0  0  0  0
  1 27  1  0  0  0  0
  1 28  1  0  0  0  0
  2  3  2  0  0  0  0
  2 11  1  0  0  0  0
  3  4  1  0  0  0  0
  3 22  1  0  0  0  0
  4  5  2  0  0  0  0
  4 15  1  0  0  0  0
  5  6  1  0  0  0  0
  5 10  1  0  0  0  0
  6  7  2  0  0  0  0
  6 29  1  0  0  0  0
  7  8  1  0  0  0  0
  7 30  1  0  0  0  0
  8  9  2  0  0  0  0
  8 14  1  0  0  0  0
  9 10  1  0  0  0  0
  9 12  1  0  0  0  0
 10 11  2  0  0  0  0
 11 31  1  0  0  0  0
 12 13  1  0  0  0  0
 13 14  1  0  0  0  0
 13 32  1  0  0  0  0
 13 33  1  0  0  0  0
 15 16  2  0  0  0  0
 15 34  1  0  0  0  0
 16 17  1  0  0  0  0
 16 35  1  0  0  0  0
 17 18  2  0  0  0  0
 17 22  1  0  0  0  0
 18 19  1  0  0  0  0
 18 36  1  0  0  0  0
 19 20  2  0  0  0  0
 19 25  1  0  0  0  0
 20 21  1  0  0  0  0
 20 23  1  0  0  0  0
 21 22  2  0  0  0  0
 21 37  1  0  0  0  0
 23 24  1  0  0  0  0
 24 25  1  0  0  0  0
 24 38  1  0  0  0  0
 24 39  1  0  0  0  0
M  CHG  1   2   1
M  END
$$$$
Target_lig_1173
 OpenBabel05122505473D

 55 58  0  0  1  0  0  0  0  0999 V2000
    1.4748   -7.4037   -4.2774 C   0  0  0  0  0  0  0  0  0  0  0  0
    1.8076   -6.0761   -4.7863 N   0  0  0  0  0  0  0  0  0  0  0  0
    2.4025   -5.1912   -3.7503 C   0  0  3  0  0  0  0  0  0  0  0  0
    3.8569   -5.4990   -3.3130 C   0  0  0  0  0  0  0  0  0  0  0  0
    4.4314   -6.5647   -3.5260 O   0  0  0  0  0  0  0  0  0  0  0  0
    4.4514   -4.5035   -2.3789 C   0  0  0  0  0  0  0  0  0  0  0  0
    3.9915   -3.2385   -2.4360 C   0  0  0  0  0  0  0  0  0  0  0  0
    3.2329   -2.7503   -3.6567 C   0  0  3  0  0  0  0  0  0  0  0  0
    2.1164   -3.7149   -4.1241 C   0  0  3  0  0  0  0  0  0  0  0  0
    0.7058   -3.3214   -3.6039 C   0  0  0  0  0  0  0  0  0  0  0  0
    0.7888   -2.7009   -2.2003 C   0  0  3  0  0  0  0  0  0  0  0  0
   -0.5414   -2.6710   -1.4243 C   0  0  3  0  0  0  0  0  0  0  0  0
   -1.8046   -2.5153   -2.2757 C   0  0  0  0  0  0  0  0  0  0  0  0
   -0.5140   -1.6511   -0.2927 C   0  0  0  0  0  0  0  0  0  0  0  0
   -1.3877   -1.8439    0.7904 C   0  0  0  0  0  0  0  0  0  0  0  0
   -1.4125   -0.9520    1.8576 C   0  0  0  0  0  0  0  0  0  0  0  0
   -0.5641    0.1411    1.8550 C   0  0  0  0  0  0  0  0  0  0  0  0
    0.3162    0.3470    0.7905 C   0  0  0  0  0  0  0  0  0  0  0  0
    0.3623   -0.5343   -0.3037 C   0  0  0  0  0  0  0  0  0  0  0  0
    1.3139   -0.3714   -1.4404 C   0  0  0  0  0  0  0  0  0  0  0  0
    1.4958   -1.3740   -2.3151 C   0  0  0  0  0  0  0  0  0  0  0  0
    2.5471   -1.3589   -3.4074 C   0  0  0  0  0  0  0  0  0  0  0  0
    2.7317   -0.3886   -4.1488 O   0  0  0  0  0  0  0  0  0  0  0  0
    2.0664    0.7794   -1.5030 O   0  0  0  0  0  0  0  0  0  0  0  0
    1.1553    1.4327    0.8298 O   0  0  0  0  0  0  0  0  0  0  0  0
    4.2395   -2.7698   -4.6807 O   0  0  0  0  0  0  0  0  0  0  0  0
    4.2964   -2.2844   -1.4757 O   0  0  0  0  0  0  0  0  0  0  0  0
    5.5386   -4.7850   -1.4202 C   0  0  0  0  0  0  0  0  0  0  0  0
    5.5089   -4.3352   -0.2773 O   0  0  0  0  0  0  0  0  0  0  0  0
    6.6331   -5.4190   -1.9127 N   0  0  0  0  0  0  0  0  0  0  0  0
    2.5738   -6.1555   -6.0289 C   0  0  0  0  0  0  0  0  0  0  0  0
    0.8395   -7.3444   -3.3899 H   0  0  0  0  0  0  0  0  0  0  0  0
    2.3653   -7.9830   -4.0246 H   0  0  0  0  0  0  0  0  0  0  0  0
    0.9063   -7.9645   -5.0321 H   0  0  0  0  0  0  0  0  0  0  0  0
    1.8350   -5.3874   -2.8269 H   0  0  0  0  0  0  0  0  0  0  0  0
    2.0455   -3.6273   -5.2157 H   0  0  0  0  0  0  0  0  0  0  0  0
    0.0448   -4.1948   -3.6200 H   0  0  0  0  0  0  0  0  0  0  0  0
    0.2649   -2.5952   -4.3032 H   0  0  0  0  0  0  0  0  0  0  0  0
    1.4449   -3.3435   -1.5935 H   0  0  0  0  0  0  0  0  0  0  0  0
   -0.6153   -3.6619   -0.9539 H   0  0  0  0  0  0  0  0  0  0  0  0
   -1.8514   -1.5421   -2.7717 H   0  0  0  0  0  0  0  0  0  0  0  0
   -2.7026   -2.6223   -1.6559 H   0  0  0  0  0  0  0  0  0  0  0  0
   -1.8758   -3.2981   -3.0379 H   0  0  0  0  0  0  0  0  0  0  0  0
   -2.0613   -2.6988    0.8034 H   0  0  0  0  0  0  0  0  0  0  0  0
   -2.0955   -1.1187    2.6865 H   0  0  0  0  0  0  0  0  0  0  0  0
   -0.5900    0.8302    2.7027 H   0  0  0  0  0  0  0  0  0  0  0  0
    1.9054    1.2834   -0.6826 H   0  0  0  0  0  0  0  0  0  0  0  0
    1.0047    1.9099    1.6655 H   0  0  0  0  0  0  0  0  0  0  0  0
    3.8170   -2.5939   -5.5382 H   0  0  0  0  0  0  0  0  0  0  0  0
    4.6818   -2.7254   -0.6839 H   0  0  0  0  0  0  0  0  0  0  0  0
    6.7103   -5.7098   -2.8803 H   0  0  0  0  0  0  0  0  0  0  0  0
    7.4528   -5.4869   -1.3238 H   0  0  0  0  0  0  0  0  0  0  0  0
    2.0707   -6.8136   -6.7467 H   0  0  0  0  0  0  0  0  0  0  0  0
    3.5912   -6.5293   -5.8871 H   0  0  0  0  0  0  0  0  0  0  0  0
    2.6340   -5.1790   -6.5213 H   0  0  0  0  0  0  0  0  0  0  0  0
  1  2  1  0  0  0  0
  1 32  1  0  0  0  0
  1 33  1  0  0  0  0
  1 34  1  0  0  0  0
  2  3  1  0  0  0  0
  2 31  1  0  0  0  0
  3  4  1  0  0  0  0
  3  9  1  0  0  0  0
  3 35  1  0  0  0  0
  4  5  2  0  0  0  0
  4  6  1  0  0  0  0
  6  7  2  0  0  0  0
  6 28  1  0  0  0  0
  7  8  1  0  0  0  0
  7 27  1  0  0  0  0
  8  9  1  0  0  0  0
  8 22  1  0  0  0  0
  8 26  1  0  0  0  0
  9 10  1  0  0  0  0
  9 36  1  0  0  0  0
 10 11  1  0  0  0  0
 10 37  1  0  0  0  0
 10 38  1  0  0  0  0
 11 12  1  0  0  0  0
 11 21  1  0  0  0  0
 11 39  1  0  0  0  0
 12 13  1  0  0  0  0
 12 14  1  0  0  0  0
 12 40  1  0  0  0  0
 13 41  1  0  0  0  0
 13 42  1  0  0  0  0
 13 43  1  0  0  0  0
 14 15  1  0  0  0  0
 14 19  2  0  0  0  0
 15 16  2  0  0  0  0
 15 44  1  0  0  0  0
 16 17  1  0  0  0  0
 16 45  1  0  0  0  0
 17 18  2  0  0  0  0
 17 46  1  0  0  0  0
 18 19  1  0  0  0  0
 18 25  1  0  0  0  0
 19 20  1  0  0  0  0
 20 21  2  0  0  0  0
 20 24  1  0  0  0  0
 21 22  1  0  0  0  0
 22 23  2  0  0  0  0
 24 47  1  0  0  0  0
 25 48  1  0  0  0  0
 26 49  1  0  0  0  0
 27 50  1  0  0  0  0
 28 29  2  0  0  0  0
 28 30  1  0  0  0  0
 30 51  1  0  0  0  0
 30 52  1  0  0  0  0
 31 53  1  0  0  0  0
 31 54  1  0  0  0  0
 31 55  1  0  0  0  0
M  END
$$$$
Target_lig_1187
 OpenBabel05122505473D

 49 52  0  0  1  0  0  0  0  0999 V2000
    2.3766    1.8017   -1.2452 C   0  0  0  0  0  0  0  0  0  0  0  0
    2.4565    0.5740   -0.4834 N   0  0  0  0  0  0  0  0  0  0  0  0
    3.2030   -0.4194   -1.1064 C   0  0  0  0  0  0  0  0  0  0  0  0
    4.2211   -0.0894   -1.9114 N   0  0  0  0  0  0  0  0  0  0  0  0
    4.8630   -1.0953   -2.5341 C   0  0  0  0  0  0  0  0  0  0  0  0
    4.5449   -2.4270   -2.3855 C   0  0  0  0  0  0  0  0  0  0  0  0
    3.4965   -2.6554   -1.5208 C   0  0  0  0  0  0  0  0  0  0  0  0
    2.8129   -1.6801   -0.8818 N   0  0  0  0  0  0  0  0  0  0  0  0
    5.2682   -3.5154   -3.1300 C   0  0  0  0  0  0  0  0  0  0  0  0
    6.4555   -4.1115   -2.4852 N   0  0  0  0  0  0  0  0  0  0  0  0
    7.5128   -3.1309   -2.2182 C   0  0  0  0  0  0  0  0  0  0  0  0
    8.7371   -3.7427   -1.5378 C   0  0  0  0  0  0  0  0  0  0  0  0
    8.3395   -4.4601   -0.2547 C   0  0  0  0  0  0  0  0  0  0  0  0
    7.3004   -5.5419   -0.5649 C   0  0  2  0  0  0  0  0  0  0  0  0
    6.0994   -4.9406   -1.3214 C   0  0  0  0  0  0  0  0  0  0  0  0
    6.8074   -6.2022    0.7067 C   0  0  0  0  0  0  0  0  0  0  0  0
    6.2088   -5.4156    1.6156 N   0  0  0  0  0  0  0  0  0  0  0  0
    5.7324   -6.0376    2.6959 C   0  0  0  0  0  0  0  0  0  0  0  0
    5.1240   -5.2161    3.5850 O   0  0  0  0  0  0  0  0  0  0  0  0
    5.7994   -7.3758    2.9298 C   0  0  0  0  0  0  0  0  0  0  0  0
    6.4192   -8.1083    1.9396 C   0  0  0  0  0  0  0  0  0  0  0  0
    6.9423   -7.5381    0.8280 N   0  0  0  0  0  0  0  0  0  0  0  0
    6.5569   -9.5702    2.0054 C   0  0  0  0  0  0  0  0  0  0  0  0
    7.5781  -10.3679    1.5192 C   0  0  0  0  0  0  0  0  0  0  0  0
    7.3601  -11.7572    1.7579 C   0  0  0  0  0  0  0  0  0  0  0  0
    6.1695  -11.9861    2.4078 C   0  0  0  0  0  0  0  0  0  0  0  0
    5.3282  -10.5362    2.7288 S   0  0  0  0  0  0  0  0  0  0  0  0
    1.7092    2.5046   -0.7375 H   0  0  0  0  0  0  0  0  0  0  0  0
    1.9743    1.6276   -2.2501 H   0  0  0  0  0  0  0  0  0  0  0  0
    3.3557    2.2876   -1.3277 H   0  0  0  0  0  0  0  0  0  0  0  0
    1.5686    0.1481   -0.2425 H   0  0  0  0  0  0  0  0  0  0  0  0
    5.6751   -0.7753   -3.1810 H   0  0  0  0  0  0  0  0  0  0  0  0
    3.1492   -3.6622   -1.3041 H   0  0  0  0  0  0  0  0  0  0  0  0
    5.5675   -3.1218   -4.1109 H   0  0  0  0  0  0  0  0  0  0  0  0
    4.5513   -4.3117   -3.3722 H   0  0  0  0  0  0  0  0  0  0  0  0
    7.1509   -2.3171   -1.5812 H   0  0  0  0  0  0  0  0  0  0  0  0
    7.8387   -2.6854   -3.1670 H   0  0  0  0  0  0  0  0  0  0  0  0
    9.4558   -2.9487   -1.3049 H   0  0  0  0  0  0  0  0  0  0  0  0
    9.2392   -4.4415   -2.2180 H   0  0  0  0  0  0  0  0  0  0  0  0
    7.9347   -3.7250    0.4540 H   0  0  0  0  0  0  0  0  0  0  0  0
    9.2239   -4.9000    0.2206 H   0  0  0  0  0  0  0  0  0  0  0  0
    7.7731   -6.3040   -1.1993 H   0  0  0  0  0  0  0  0  0  0  0  0
    5.4908   -4.3570   -0.6234 H   0  0  0  0  0  0  0  0  0  0  0  0
    5.4699   -5.7715   -1.6698 H   0  0  0  0  0  0  0  0  0  0  0  0
    5.2051   -4.3572    3.1273 H   0  0  0  0  0  0  0  0  0  0  0  0
    5.3904   -7.8099    3.8303 H   0  0  0  0  0  0  0  0  0  0  0  0
    8.4502   -9.9653    1.0164 H   0  0  0  0  0  0  0  0  0  0  0  0
    8.0395  -12.5477    1.4637 H   0  0  0  0  0  0  0  0  0  0  0  0
    5.7480  -12.9358    2.7074 H   0  0  0  0  0  0  0  0  0  0  0  0
  1  2  1  0  0  0  0
  1 28  1  0  0  0  0
  1 29  1  0  0  0  0
  1 30  1  0  0  0  0
  2  3  1  0  0  0  0
  2 31  1  0  0  0  0
  3  4  1  0  0  0  0
  3  8  2  0  0  0  0
  4  5  2  0  0  0  0
  5  6  1  0  0  0  0
  5 32  1  0  0  0  0
  6  7  2  0  0  0  0
  6  9  1  0  0  0  0
  7  8  1  0  0  0  0
  7 33  1  0  0  0  0
  9 10  1  0  0  0  0
  9 34  1  0  0  0  0
  9 35  1  0  0  0  0
 10 11  1  0  0  0  0
 10 15  1  0  0  0  0
 11 12  1  0  0  0  0
 11 36  1  0  0  0  0
 11 37  1  0  0  0  0
 12 13  1  0  0  0  0
 12 38  1  0  0  0  0
 12 39  1  0  0  0  0
 13 14  1  0  0  0  0
 13 40  1  0  0  0  0
 13 41  1  0  0  0  0
 14 15  1  0  0  0  0
 14 16  1  0  0  0  0
 14 42  1  6  0  0  0
 15 43  1  0  0  0  0
 15 44  1  0  0  0  0
 16 17  1  0  0  0  0
 16 22  2  0  0  0  0
 17 18  2  0  0  0  0
 18 19  1  0  0  0  0
 18 20  1  0  0  0  0
 19 45  1  0  0  0  0
 20 21  2  0  0  0  0
 20 46  1  0  0  0  0
 21 22  1  0  0  0  0
 21 23  1  0  0  0  0
 23 24  2  0  0  0  0
 23 27  1  0  0  0  0
 24 25  1  0  0  0  0
 24 47  1  0  0  0  0
 25 26  2  0  0  0  0
 25 48  1  0  0  0  0
 26 27  1  0  0  0  0
 26 49  1  0  0  0  0
M  END
$$$$
